data_Illite
_audit_creation_method         'generated by CrystalMaker X for Windows'
_cell_length_a                   5.202100
_cell_length_b                   8.979700
_cell_length_c                  10.226000
_cell_angle_alpha               90.000000
_cell_angle_beta               101.570000
_cell_angle_gamma               90.000000

_symmetry_space_group_name_H-M     'C 2/m'

loop_
_symmetry_equiv_pos_as_xyz
'+x,+y,+z'
'-x,+y,-z'
'-x,-y,-z'
'+x,-y,+z'
'1/2+x,1/2+y,+z'
'1/2-x,1/2+y,-z'
'1/2-x,1/2-y,-z'
'1/2+x,1/2-y,+z'

loop_
_atom_site_label
_atom_site_type_symbol
_atom_site_occupancy
_atom_site_fract_x
_atom_site_fract_y
_atom_site_fract_z
 Al  Al 1.0  0.5  0.1667  0.0
 K  K 1.0  0.0  0.5  0.5
 O1  O 1.0  0.3487  0.31  0.1063
 O2  O 1.0  0.4984  0.5  0.3131
 O3  O 1.0  0.6715  0.2246  0.335
 O-H  O 1.0  0.4191  0.0  0.1006
 Si  Si 1.0  0.4191  0.328  0.2688

