data_Kaolinite
_audit_creation_method         'generated by CrystalMaker X for Windows'
_cell_length_a                   5.140000
_cell_length_b                   8.930000
_cell_length_c                   7.370000
_cell_angle_alpha               91.800003
_cell_angle_beta               104.500000
_cell_angle_gamma               90.000000

_symmetry_space_group_name_H-M     'C 1'

loop_
_symmetry_equiv_pos_as_xyz
'+x,+y,+z'
'1/2+x,1/2+y,+z'

loop_
_atom_site_label
_atom_site_type_symbol
_atom_site_occupancy
_atom_site_fract_x
_atom_site_fract_y
_atom_site_fract_z
 Al1  Al 1.0  0.501999974251  0.172000005841  0.003000000026
 Al2  Al 1.0  0.002000000095  0.330000013113  0.002000000095
 O1  O 1.0  0.754000008106  0.314999997616  0.155000001192
 O2  O 1.0  0.689999997616  0.00400000019  0.157000005245
 O3  O 1.0  0.791000008583  0.165000006557  0.481999993324
 O4  O 1.0  0.611999988556  -0.119999997318  0.455000013113
 O5  O 1.0  0.108000002801  -0.057999998331  0.455000013113
 OH1  OH 1.0  0.777999997139  0.180000007153  -0.140000000596
 OH2  OH 1.0  0.277999997139  0.319999992847  -0.137999996543
 OH3  OH 1.0  0.316000014544  -0.00800000038  -0.136000007391
 OH4  OH 1.0  0.247999995947  0.184000000358  0.155000001192
 T1  Si 1.0  0.800000011921  0.321999996901  0.381999999285
 T2  Si 1.0  0.800000011921  0.0  0.384999990463

