data_Montmorillonite
_audit_creation_method         'generated by CrystalMaker X for Windows'
_cell_length_a                   5.200000
_cell_length_b                   9.200000
_cell_length_c                  10.130000
_cell_angle_alpha               90.000000
_cell_angle_beta                99.000000
_cell_angle_gamma               90.000000

_symmetry_space_group_name_H-M     'C 2/m'

loop_
_symmetry_equiv_pos_as_xyz
'+x,+y,+z'
'-x,+y,-z'
'-x,-y,-z'
'+x,-y,+z'
'1/2+x,1/2+y,+z'
'1/2-x,1/2+y,-z'
'1/2-x,1/2-y,-z'
'1/2+x,1/2-y,+z'

loop_
_atom_site_label
_atom_site_type_symbol
_atom_site_occupancy
_atom_site_fract_x
_atom_site_fract_y
_atom_site_fract_z
 M2  Al 1.0  0.0  0.333000004292  0.0
 K  K 1.0  0.5  0.0  0.5
 M1  Mg 1.0  0.0  0.0  0.0
 O1  O 1.0  0.481000006199  0.5  0.319999992847
 O2  O 1.0  0.172000005841  0.727999985218  0.335000008345
 O5  O 1.0  0.347999989986  0.690999984741  0.109999999404
 O4  OH 1.0  0.418999999762  0.0  0.104999996722
 T1  Si 1.0  0.416999995708  0.328999996185  0.270000010729

