data_Vermiculite_(complex_1)
_audit_creation_method         'generated by CrystalMaker X for Windows'
_cell_length_a                   5.330000
_cell_length_b                   9.180000
_cell_length_c                  17.450001
_cell_angle_alpha               90.000000
_cell_angle_beta                97.000000
_cell_angle_gamma               90.000000

_symmetry_space_group_name_H-M     'C 2'

loop_
_symmetry_equiv_pos_as_xyz
'+x,+y,+z'
'-x,+y,-z'
'1/2+x,1/2+y,+z'
'1/2-x,1/2+y,-z'

loop_
_atom_site_label
_atom_site_type_symbol
_atom_site_occupancy
_atom_site_fract_x
_atom_site_fract_y
_atom_site_fract_z
 C0  C 1.0  0.600000023842  0.365999996662  0.391999989748
 C1  C 1.0  0.479999989271  0.504999995232  0.42199999094
 C2  C 1.0  0.59500002861  0.633000016212  0.38299998641
 C3  C 1.0  0.47499999404  0.763000011444  0.412999987602
 C4  C 1.0  0.589999973774  0.899999976158  0.375
 C5  C 1.0  0.469999998808  0.037999998778  0.405000001192
 Mg1  Mg 0.79000002  0.0  0.0  0.0
 Mg1  Fe 0.16  0.0  0.0  0.0
 Mg1  Al 0.05  0.0  0.0  0.0
 Mg2  Mg 0.79000002  0.0  0.333000004292  0.0
 Mg2  Fe 0.16  0.0  0.333000004292  0.0
 Mg2  Al 0.05  0.0  0.333000004292  0.0
 Mg3  Mg 0.79000002  0.0  0.666999995708  0.0
 Mg3  Fe 0.16  0.0  0.666999995708  0.0
 Mg3  Al 0.05  0.0  0.666999995708  0.0
 N  N 1.0  0.584999978542  0.166999995708  0.36700001359
 O  O 1.0  0.465000003576  0.298000007868  0.432000011206
 O1  O 1.0  0.351999998093  0.0  0.061000000685
 O2  O 1.0  0.351999998093  0.333000004292  0.061000000685
 O3  O 1.0  0.351999998093  0.666999995708  0.061000000685
 O4  O 1.0  0.136000007391  0.463999986649  0.188999995589
 O5  O 1.0  0.136000007391  0.929000020027  0.188999995589
 O6  O 1.0  0.412000000477  0.166999995708  0.217999994755
 O-H  O 1.0  0.714999973774  0.331999987364  0.330000013113
 Si1  Si 0.68000001  0.393000006676  0.0  0.159999996424
 Si1  Al 0.31999999  0.393000006676  0.0  0.159999996424
 Si2  Si 0.68000001  0.393000006676  0.333000004292  0.159999996424
 Si2  Al 0.31999999  0.393000006676  0.333000004292  0.159999996424

