data_Zeolite-X
_audit_creation_method         'generated by CrystalMaker X for Windows'
_cell_length_a                  25.024000
_cell_length_b                  25.024000
_cell_length_c                  25.024000
_cell_angle_alpha               90.000000
_cell_angle_beta                90.000000
_cell_angle_gamma               90.000000

_symmetry_space_group_name_H-M     'F d -3'

loop_
_symmetry_equiv_pos_as_xyz
'+x,+y,+z'
'+z,+x,+y'
'+y,+z,+x'
'-x,1/4+y,1/4+z'
'-z,1/4+x,1/4+y'
'-y,1/4+z,1/4+x'
'1/4+x,-y,1/4+z'
'1/4+z,-x,1/4+y'
'1/4+y,-z,1/4+x'
'1/4-x,3/4-y,1/2+z'
'1/4-z,3/4-x,1/2+y'
'1/4-y,3/4-z,1/2+x'
'-x,-y,-z'
'-z,-x,-y'
'-y,-z,-x'
'+x,3/4-y,3/4-z'
'+z,3/4-x,3/4-y'
'+y,3/4-z,3/4-x'
'3/4-x,+y,3/4-z'
'3/4-z,+x,3/4-y'
'3/4-y,+z,3/4-x'
'3/4+x,1/4+y,1/2-z'
'3/4+z,1/4+x,1/2-y'
'3/4+y,1/4+z,1/2-x'
'+x,1/2+y,1/2+z'
'1/2+x,1/2+y,+z'
'1/2+x,+y,1/2+z'
'+z,1/2+x,1/2+y'
'1/2+z,1/2+x,+y'
'1/2+z,+x,1/2+y'
'+y,1/2+z,1/2+x'
'1/2+y,1/2+z,+x'
'1/2+y,+z,1/2+x'
'-x,3/4+y,3/4+z'
'1/2-x,3/4+y,1/4+z'
'1/2-x,1/4+y,3/4+z'
'-z,3/4+x,3/4+y'
'1/2-z,3/4+x,1/4+y'
'1/2-z,1/4+x,3/4+y'
'-y,3/4+z,3/4+x'
'1/2-y,3/4+z,1/4+x'
'1/2-y,1/4+z,3/4+x'
'1/4+x,1/2-y,3/4+z'
'3/4+x,1/2-y,1/4+z'
'3/4+x,-y,3/4+z'
'1/4+z,1/2-x,3/4+y'
'3/4+z,1/2-x,1/4+y'
'3/4+z,-x,3/4+y'
'1/4+y,1/2-z,3/4+x'
'3/4+y,1/2-z,1/4+x'
'3/4+y,-z,3/4+x'
'1/4-x,1/4-y,+z'
'3/4-x,1/4-y,1/2+z'
'3/4-x,3/4-y,+z'
'1/4-z,1/4-x,+y'
'3/4-z,1/4-x,1/2+y'
'3/4-z,3/4-x,+y'
'1/4-y,1/4-z,+x'
'3/4-y,1/4-z,1/2+x'
'3/4-y,3/4-z,+x'
'-x,1/2-y,1/2-z'
'1/2-x,1/2-y,-z'
'1/2-x,-y,1/2-z'
'-z,1/2-x,1/2-y'
'1/2-z,1/2-x,-y'
'1/2-z,-x,1/2-y'
'-y,1/2-z,1/2-x'
'1/2-y,1/2-z,-x'
'1/2-y,-z,1/2-x'
'+x,1/4-y,1/4-z'
'1/2+x,1/4-y,3/4-z'
'1/2+x,3/4-y,1/4-z'
'+z,1/4-x,1/4-y'
'1/2+z,1/4-x,3/4-y'
'1/2+z,3/4-x,1/4-y'
'+y,1/4-z,1/4-x'
'1/2+y,1/4-z,3/4-x'
'1/2+y,3/4-z,1/4-x'
'3/4-x,1/2+y,1/4-z'
'1/4-x,1/2+y,3/4-z'
'1/4-x,+y,1/4-z'
'3/4-z,1/2+x,1/4-y'
'1/4-z,1/2+x,3/4-y'
'1/4-z,+x,1/4-y'
'3/4-y,1/2+z,1/4-x'
'1/4-y,1/2+z,3/4-x'
'1/4-y,+z,1/4-x'
'3/4+x,3/4+y,-z'
'1/4+x,3/4+y,1/2-z'
'1/4+x,1/4+y,-z'
'3/4+z,3/4+x,-y'
'1/4+z,3/4+x,1/2-y'
'1/4+z,1/4+x,-y'
'3/4+y,3/4+z,-x'
'1/4+y,3/4+z,1/2-x'
'1/4+y,1/4+z,-x'

loop_
_atom_site_label
_atom_site_type_symbol
_atom_site_occupancy
_atom_site_fract_x
_atom_site_fract_y
_atom_site_fract_z
 Al1Si2  Al 1.0  0.943300008774  0.036600001156  0.121500000358
 Ca1  Ca 1.0  0.0  0.0  0.0
 Ca2  Ca 1.0  0.223399996758  0.223399996758  0.223399996758
 O1  O 1.0  0.887000024319  0.000500000024  0.106899999082
 O2  O 1.0  0.996299982071  0.99690002203  0.142900004983
 O3  O 1.0  0.963900029659  0.066200003028  0.061099998653
 O4  O 1.0  0.940500020981  0.079800002277  0.173399999738
 Si1  Si 1.0  0.945999979973  0.123000003397  0.033500000834

