data_Zeolite-L
_audit_creation_method         'generated by CrystalMaker X for Windows'
_cell_length_a                  18.358000
_cell_length_b                  18.358000
_cell_length_c                   7.521000
_cell_angle_alpha               90.000000
_cell_angle_beta                90.000000
_cell_angle_gamma              120.000000

_symmetry_space_group_name_H-M     'P 6/m m m'

loop_
_symmetry_equiv_pos_as_xyz
'+x,+y,+z'
'-y,+x-y,+z'
'-x+y,-x,+z'
'-x,-y,+z'
'+y,-x+y,+z'
'+x-y,+x,+z'
'+y,+x,+z'
'+x-y,-y,+z'
'-x,-x+y,+z'
'-y,-x,+z'
'-x+y,+y,+z'
'+x,+x-y,+z'
'-x,-y,-z'
'+y,-x+y,-z'
'+x-y,+x,-z'
'+x,+y,-z'
'-y,+x-y,-z'
'-x+y,-x,-z'
'-y,-x,-z'
'-x+y,+y,-z'
'+x,+x-y,-z'
'+y,+x,-z'
'+x-y,-y,-z'
'-x,-x+y,-z'

loop_
_atom_site_label
_atom_site_type_symbol
_atom_site_occupancy
_atom_site_fract_x
_atom_site_fract_y
_atom_site_fract_z
 K1  K 1.0  0.666666686535  0.333333343267  0.5
 K2  K 1.0  0.5  0.0  0.5
 Na1  Na 1.0  0.305599987507  0.0  0.0
 o1  O 1.0  0.0  0.288599997759  0.5
 o2  O 1.0  0.16060000658  0.321099996567  0.5
 o3  O 1.0  0.258100003004  0.516200006008  0.246000006795
 o4  O 1.0  0.105800002813  0.417299985886  0.31589999795
 o5  O 1.0  0.42919999361  0.858299970627  0.273000001907
 o6  O 1.0  0.154699996114  0.479799985886  0.0
 H2O(1)  OH 1.0  0.21099999547  0.0  0.0
 H2O(2)  OH 1.0  0.127700001001  0.255499988794  0.074000000954
 H2O(3)  OH 1.0  0.138899996877  0.069399997592  0.282000005245
 H2O(4)  OH 1.0  0.108999997377  0.0  0.5
 T1  Si 1.0  0.092699997127  0.357800006866  0.5
 T2  Si 1.0  0.1712000072  0.505500018597  0.213400006294

