data_Zeolite_X
_audit_creation_method         'generated by CrystalMaker X for Windows'
_cell_length_a                  24.718000
_cell_length_b                  24.718000
_cell_length_c                  24.718000
_cell_angle_alpha               90.000000
_cell_angle_beta                90.000000
_cell_angle_gamma               90.000000

_symmetry_space_group_name_H-M     'F d -3 m'

loop_
_symmetry_equiv_pos_as_xyz
'+x,+y,+z'
'+z,+x,+y'
'+y,+z,+x'
'-x,1/4+y,1/4+z'
'-z,1/4+x,1/4+y'
'-y,1/4+z,1/4+x'
'1/4+x,-y,1/4+z'
'1/4+z,-x,1/4+y'
'1/4+y,-z,1/4+x'
'1/4-x,3/4-y,1/2+z'
'1/4-z,3/4-x,1/2+y'
'1/4-y,3/4-z,1/2+x'
'+y,+x,+z'
'+x,+z,+y'
'+z,+y,+x'
'1/4+y,-x,1/4+z'
'1/4+x,-z,1/4+y'
'1/4+z,-y,1/4+x'
'-y,1/4+x,1/4+z'
'-x,1/4+z,1/4+y'
'-z,1/4+y,1/4+x'
'3/4-y,1/4-x,1/2+z'
'3/4-x,1/4-z,1/2+y'
'3/4-z,1/4-y,1/2+x'
'-x,-y,-z'
'-z,-x,-y'
'-y,-z,-x'
'+x,3/4-y,3/4-z'
'+z,3/4-x,3/4-y'
'+y,3/4-z,3/4-x'
'3/4-x,+y,3/4-z'
'3/4-z,+x,3/4-y'
'3/4-y,+z,3/4-x'
'3/4+x,1/4+y,1/2-z'
'3/4+z,1/4+x,1/2-y'
'3/4+y,1/4+z,1/2-x'
'-y,-x,-z'
'-x,-z,-y'
'-z,-y,-x'
'3/4-y,+x,3/4-z'
'3/4-x,+z,3/4-y'
'3/4-z,+y,3/4-x'
'+y,3/4-x,3/4-z'
'+x,3/4-z,3/4-y'
'+z,3/4-y,3/4-x'
'1/4+y,3/4+x,1/2-z'
'1/4+x,3/4+z,1/2-y'
'1/4+z,3/4+y,1/2-x'
'+x,1/2+y,1/2+z'
'1/2+x,1/2+y,+z'
'1/2+x,+y,1/2+z'
'+z,1/2+x,1/2+y'
'1/2+z,1/2+x,+y'
'1/2+z,+x,1/2+y'
'+y,1/2+z,1/2+x'
'1/2+y,1/2+z,+x'
'1/2+y,+z,1/2+x'
'-x,3/4+y,3/4+z'
'1/2-x,3/4+y,1/4+z'
'1/2-x,1/4+y,3/4+z'
'-z,3/4+x,3/4+y'
'1/2-z,3/4+x,1/4+y'
'1/2-z,1/4+x,3/4+y'
'-y,3/4+z,3/4+x'
'1/2-y,3/4+z,1/4+x'
'1/2-y,1/4+z,3/4+x'
'1/4+x,1/2-y,3/4+z'
'3/4+x,1/2-y,1/4+z'
'3/4+x,-y,3/4+z'
'1/4+z,1/2-x,3/4+y'
'3/4+z,1/2-x,1/4+y'
'3/4+z,-x,3/4+y'
'1/4+y,1/2-z,3/4+x'
'3/4+y,1/2-z,1/4+x'
'3/4+y,-z,3/4+x'
'1/4-x,1/4-y,+z'
'3/4-x,1/4-y,1/2+z'
'3/4-x,3/4-y,+z'
'1/4-z,1/4-x,+y'
'3/4-z,1/4-x,1/2+y'
'3/4-z,3/4-x,+y'
'1/4-y,1/4-z,+x'
'3/4-y,1/4-z,1/2+x'
'3/4-y,3/4-z,+x'
'+y,1/2+x,1/2+z'
'1/2+y,1/2+x,+z'
'1/2+y,+x,1/2+z'
'+x,1/2+z,1/2+y'
'1/2+x,1/2+z,+y'
'1/2+x,+z,1/2+y'
'+z,1/2+y,1/2+x'
'1/2+z,1/2+y,+x'
'1/2+z,+y,1/2+x'
'1/4+y,1/2-x,3/4+z'
'3/4+y,1/2-x,1/4+z'
'3/4+y,-x,3/4+z'
'1/4+x,1/2-z,3/4+y'
'3/4+x,1/2-z,1/4+y'
'3/4+x,-z,3/4+y'
'1/4+z,1/2-y,3/4+x'
'3/4+z,1/2-y,1/4+x'
'3/4+z,-y,3/4+x'
'-y,3/4+x,3/4+z'
'1/2-y,3/4+x,1/4+z'
'1/2-y,1/4+x,3/4+z'
'-x,3/4+z,3/4+y'
'1/2-x,3/4+z,1/4+y'
'1/2-x,1/4+z,3/4+y'
'-z,3/4+y,3/4+x'
'1/2-z,3/4+y,1/4+x'
'1/2-z,1/4+y,3/4+x'
'3/4-y,3/4-x,+z'
'1/4-y,3/4-x,1/2+z'
'1/4-y,1/4-x,+z'
'3/4-x,3/4-z,+y'
'1/4-x,3/4-z,1/2+y'
'1/4-x,1/4-z,+y'
'3/4-z,3/4-y,+x'
'1/4-z,3/4-y,1/2+x'
'1/4-z,1/4-y,+x'
'-x,1/2-y,1/2-z'
'1/2-x,1/2-y,-z'
'1/2-x,-y,1/2-z'
'-z,1/2-x,1/2-y'
'1/2-z,1/2-x,-y'
'1/2-z,-x,1/2-y'
'-y,1/2-z,1/2-x'
'1/2-y,1/2-z,-x'
'1/2-y,-z,1/2-x'
'+x,1/4-y,1/4-z'
'1/2+x,1/4-y,3/4-z'
'1/2+x,3/4-y,1/4-z'
'+z,1/4-x,1/4-y'
'1/2+z,1/4-x,3/4-y'
'1/2+z,3/4-x,1/4-y'
'+y,1/4-z,1/4-x'
'1/2+y,1/4-z,3/4-x'
'1/2+y,3/4-z,1/4-x'
'3/4-x,1/2+y,1/4-z'
'1/4-x,1/2+y,3/4-z'
'1/4-x,+y,1/4-z'
'3/4-z,1/2+x,1/4-y'
'1/4-z,1/2+x,3/4-y'
'1/4-z,+x,1/4-y'
'3/4-y,1/2+z,1/4-x'
'1/4-y,1/2+z,3/4-x'
'1/4-y,+z,1/4-x'
'3/4+x,3/4+y,-z'
'1/4+x,3/4+y,1/2-z'
'1/4+x,1/4+y,-z'
'3/4+z,3/4+x,-y'
'1/4+z,3/4+x,1/2-y'
'1/4+z,1/4+x,-y'
'3/4+y,3/4+z,-x'
'1/4+y,3/4+z,1/2-x'
'1/4+y,1/4+z,-x'
'-y,1/2-x,1/2-z'
'1/2-y,1/2-x,-z'
'1/2-y,-x,1/2-z'
'-x,1/2-z,1/2-y'
'1/2-x,1/2-z,-y'
'1/2-x,-z,1/2-y'
'-z,1/2-y,1/2-x'
'1/2-z,1/2-y,-x'
'1/2-z,-y,1/2-x'
'3/4-y,1/2+x,1/4-z'
'1/4-y,1/2+x,3/4-z'
'1/4-y,+x,1/4-z'
'3/4-x,1/2+z,1/4-y'
'1/4-x,1/2+z,3/4-y'
'1/4-x,+z,1/4-y'
'3/4-z,1/2+y,1/4-x'
'1/4-z,1/2+y,3/4-x'
'1/4-z,+y,1/4-x'
'+y,1/4-x,1/4-z'
'1/2+y,1/4-x,3/4-z'
'1/2+y,3/4-x,1/4-z'
'+x,1/4-z,1/4-y'
'1/2+x,1/4-z,3/4-y'
'1/2+x,3/4-z,1/4-y'
'+z,1/4-y,1/4-x'
'1/2+z,1/4-y,3/4-x'
'1/2+z,3/4-y,1/4-x'
'1/4+y,1/4+x,-z'
'3/4+y,1/4+x,1/2-z'
'3/4+y,3/4+x,-z'
'1/4+x,1/4+z,-y'
'3/4+x,1/4+z,1/2-y'
'3/4+x,3/4+z,-y'
'1/4+z,1/4+y,-x'
'3/4+z,1/4+y,1/2-x'
'3/4+z,3/4+y,-x'

loop_
_atom_site_label
_atom_site_type_symbol
_atom_site_occupancy
_atom_site_fract_x
_atom_site_fract_y
_atom_site_fract_z
 Al2  Al 0.98799998  0.125  0.125  0.125
 O1  O 1.0  0.899  0.101  0.0
 O2  O 1.0  0.0022  0.0022  0.1517
 O3  O 1.0  0.1782  0.1782  -0.0184
 O4  O 1.0  0.1699  0.1699  0.3227
 O5  O 0.167  0.0673  0.0832  0.1342
 Si1  Si 0.54170001  -0.0507  0.0371  0.1238
 Si1  Al 0.45829999  -0.0507  0.0371  0.1238
 Zn1  Zn 0.90899998  0.0575  0.0575  0.0575
 Zn2  Zn 0.70899999  0.2024  0.2024  0.2024
 Zn3  Zn 0.1  0.2277  0.2277  0.2277

