data_ZK-5
_audit_creation_method         'generated by CrystalMaker X for Windows'
_cell_length_a                  18.750000
_cell_length_b                  18.750000
_cell_length_c                  18.750000
_cell_angle_alpha               90.000000
_cell_angle_beta                90.000000
_cell_angle_gamma               90.000000

_symmetry_space_group_name_H-M     'I m -3 m'

loop_
_symmetry_equiv_pos_as_xyz
'+x,+y,+z'
'+z,+x,+y'
'+y,+z,+x'
'+x,+y,-z'
'+z,+x,-y'
'+y,+z,-x'
'-x,+y,+z'
'-z,+x,+y'
'-y,+z,+x'
'-x,+y,-z'
'-z,+x,-y'
'-y,+z,-x'
'+y,+x,+z'
'+x,+z,+y'
'+z,+y,+x'
'+y,+x,-z'
'+x,+z,-y'
'+z,+y,-x'
'+y,-x,+z'
'+x,-z,+y'
'+z,-y,+x'
'+y,-x,-z'
'+x,-z,-y'
'+z,-y,-x'
'-x,-y,-z'
'-z,-x,-y'
'-y,-z,-x'
'-x,-y,+z'
'-z,-x,+y'
'-y,-z,+x'
'+x,-y,-z'
'+z,-x,-y'
'+y,-z,-x'
'+x,-y,+z'
'+z,-x,+y'
'+y,-z,+x'
'-y,-x,-z'
'-x,-z,-y'
'-z,-y,-x'
'-y,-x,+z'
'-x,-z,+y'
'-z,-y,+x'
'-y,+x,-z'
'-x,+z,-y'
'-z,+y,-x'
'-y,+x,+z'
'-x,+z,+y'
'-z,+y,+x'
'1/2+x,1/2+y,1/2+z'
'1/2+z,1/2+x,1/2+y'
'1/2+y,1/2+z,1/2+x'
'1/2+x,1/2+y,1/2-z'
'1/2+z,1/2+x,1/2-y'
'1/2+y,1/2+z,1/2-x'
'1/2-x,1/2+y,1/2+z'
'1/2-z,1/2+x,1/2+y'
'1/2-y,1/2+z,1/2+x'
'1/2-x,1/2+y,1/2-z'
'1/2-z,1/2+x,1/2-y'
'1/2-y,1/2+z,1/2-x'
'1/2+y,1/2+x,1/2+z'
'1/2+x,1/2+z,1/2+y'
'1/2+z,1/2+y,1/2+x'
'1/2+y,1/2+x,1/2-z'
'1/2+x,1/2+z,1/2-y'
'1/2+z,1/2+y,1/2-x'
'1/2+y,1/2-x,1/2+z'
'1/2+x,1/2-z,1/2+y'
'1/2+z,1/2-y,1/2+x'
'1/2+y,1/2-x,1/2-z'
'1/2+x,1/2-z,1/2-y'
'1/2+z,1/2-y,1/2-x'
'1/2-x,1/2-y,1/2-z'
'1/2-z,1/2-x,1/2-y'
'1/2-y,1/2-z,1/2-x'
'1/2-x,1/2-y,1/2+z'
'1/2-z,1/2-x,1/2+y'
'1/2-y,1/2-z,1/2+x'
'1/2+x,1/2-y,1/2-z'
'1/2+z,1/2-x,1/2-y'
'1/2+y,1/2-z,1/2-x'
'1/2+x,1/2-y,1/2+z'
'1/2+z,1/2-x,1/2+y'
'1/2+y,1/2-z,1/2+x'
'1/2-y,1/2-x,1/2-z'
'1/2-x,1/2-z,1/2-y'
'1/2-z,1/2-y,1/2-x'
'1/2-y,1/2-x,1/2+z'
'1/2-x,1/2-z,1/2+y'
'1/2-z,1/2-y,1/2+x'
'1/2-y,1/2+x,1/2-z'
'1/2-x,1/2+z,1/2-y'
'1/2-z,1/2+y,1/2-x'
'1/2-y,1/2+x,1/2+z'
'1/2-x,1/2+z,1/2+y'
'1/2-z,1/2+y,1/2+x'

loop_
_atom_site_label
_atom_site_type_symbol
_atom_site_occupancy
_atom_site_fract_x
_atom_site_fract_y
_atom_site_fract_z
 Na  Na 1.0  0.131500005722  0.131500005722  0.131500005722
 O1  O 1.0  0.124499998987  0.124499998987  0.321000009775
 O2  O 1.0  0.252499997616  0.252499997616  0.404500007629
 O3  O 1.0  0.0  0.182999998331  0.326999992132
 O4  O 1.0  0.25  0.11249999702  0.387499988079
 T  Si 1.0  0.083999998868  0.201499998569  0.321999996901

