data_ZSM-5
_audit_creation_method         'generated by CrystalMaker X for Windows'
_cell_length_a                  20.076000
_cell_length_b                  19.992599
_cell_length_c                  13.401000
_cell_angle_alpha               90.000000
_cell_angle_beta                90.000000
_cell_angle_gamma               90.000000

_symmetry_space_group_name_H-M     'P n m a'

loop_
_symmetry_equiv_pos_as_xyz
'+x,+y,+z'
'1/2-x,-y,1/2+z'
'-x,1/2+y,-z'
'1/2+x,1/2-y,1/2-z'
'-x,-y,-z'
'1/2+x,+y,1/2-z'
'+x,1/2-y,+z'
'1/2-x,1/2+y,1/2+z'

loop_
_atom_site_label
_atom_site_type_symbol
_atom_site_occupancy
_atom_site_fract_x
_atom_site_fract_y
_atom_site_fract_z
 O(01)  O 1.0  0.371100008488  0.056099999696  0.75569999218
 O(02)  O 1.0  0.311100006104  0.058499999344  0.923699975014
 O(03)  O 1.0  0.200499996543  0.060800001025  0.032999999821
 O(04)  O 1.0  0.094499997795  0.06400000304  0.916400015354
 O(05)  O 1.0  0.115199998021  0.052000001073  0.725600004196
 O(06)  O 1.0  0.244200006127  0.055599998683  0.755299985409
 O(07)  O 1.0  0.375  0.845399975777  0.763499975204
 O(08)  O 1.0  0.307200014591  0.845300018787  0.928900003433
 O(09)  O 1.0  0.197699993849  0.845499992371  0.026300000027
 O(10)  O 1.0  0.089299999177  0.842199981213  0.922399997711
 O(11)  O 1.0  0.11819999665  0.841700017452  0.732300043106
 O(12)  O 1.0  0.245100006461  0.843800008297  0.759599983692
 O(13)  O 1.0  0.306499987841  0.948199987411  0.814700007439
 O(14)  O 1.0  0.075800001621  0.94730001688  0.825600028038
 O(15)  O 1.0  0.417199999094  0.127499997616  0.609600007534
 O(16)  O 1.0  0.409900009632  0.999400019646  0.586600005627
 O(17)  O 1.0  0.400599986315  0.868799984455  0.574200034142
 O(18)  O 1.0  0.188999995589  0.130600005388  0.618000030518
 O(19)  O 1.0  0.192100003362  0.000199999995  0.594099998474
 O(20)  O 1.0  0.194399997592  0.870900034904  0.581499993801
 O(21)  O 1.0  0.997600018978  0.042700000107  0.791999995708
 O(22)  O 1.0  0.994899988174  0.850499987602  0.795099973679
 O(23)  O 1.0  0.080099999905  0.25  0.148200005293
 O(24)  O 1.0  0.313400000334  0.25  0.150800004601
 O(25)  O 1.0  0.21439999342  0.25  0.559599995613
 O(26)  O 1.0  0.39050000906  0.25  0.562399983406
 OX1  OH 1.0  0.303099989891  0.25  0.835699975491
 OX2  OH 1.0  0.485000014305  0.25  0.881399989128
 T(01)  Si 1.0  0.42230001092  0.05739999935  0.664200007915
 T(02)  Si 1.0  0.308200001717  0.027499999851  0.81200003624
 T(03)  Si 1.0  0.27919998765  0.061099998653  0.032800000161
 T(04)  Si 1.0  0.121899999678  0.063699997962  0.0270000007
 T(05)  Si 1.0  0.07159999758  0.027400000021  0.815400004387
 T(06)  Si 1.0  0.186900004745  0.059399999678  0.673900008202
 T(07)  Si 1.0  0.423000007868  0.828299999237  0.674700021744
 T(08)  Si 1.0  0.307399988174  0.870000004768  0.815899968147
 T(09)  Si 1.0  0.274899989367  0.827199995518  0.031500000507
 T(10)  Si 1.0  0.120499998331  0.827300012112  0.030300000682
 T(11)  Si 1.0  0.070100001991  0.869799971581  0.818799972534
 T(12)  Si 1.0  0.187600001693  0.826900005341  0.682299971581

