LAMMPS (9 Nov 2016)
#
# LAMMPS Input File for Grain Boundaries
# Mark Tschopp, Dec2009
# This file will generate a single Sigma5(310) STGB
#

# ---------- Initialize Simulation ---------------------
clear
units metal
dimension 3
boundary p p p
atom_style atomic

# ---------- Create Atomistic Structure ---------------------
lattice fcc 4.05
Lattice spacing in x,y,z = 4.05 4.05 4.05
region whole block 0.000000 12.807225 -64.0361225 64.0361225 0.000000 4.050000 units box
create_box 2 whole
Created orthogonal box = (0 -64.0361 0) to (12.8072 64.0361 4.05)
region upper block INF INF 0.000000 64.0361225 INF INF units box
lattice fcc 4.05 orient x  0  3  1 orient y  0 -1  3 orient z  1  0  0
Lattice spacing in x,y,z = 5.12289 5.12289 4.05
create_atoms 1 region upper
Created 200 atoms
region lower block INF INF -64.0361225 0.000000 INF INF units box
lattice fcc 4.05 orient x  0  3 -1 orient y  0  1  3 orient z  1  0  0
Lattice spacing in x,y,z = 5.12289 5.12289 4.05
create_atoms 2 region lower
Created 200 atoms
group upper type 1
200 atoms in group upper
group lower type 2
200 atoms in group lower

# ---------- Define Interatomic Potential ---------------------
pair_style eam/alloy
pair_coeff * * Al99.eam.alloy Al Al
neighbor 2.0 bin
neigh_modify delay 10 check yes

# ---------- Displace atoms and delete overlapping atoms ---------------------
displace_atoms upper move 0 0 0 units lattice
delete_atoms overlap 0.35 lower upper
  2 neighbor list requests
  update every 1 steps, delay 10 steps, check yes
Deleted 2 atoms, new total = 398

# ---------- Define Settings ---------------------
compute csym all centro/atom fcc
compute eng all pe/atom
compute eatoms all reduce sum c_eng

# ---------- Run Minimization ---------------------
reset_timestep 0
thermo 10
thermo_style custom step pe lx ly lz press pxx pyy pzz c_eatoms
dump 		1 all cfg 25 dump.sig5_minimization_*.cfg mass type xs ys zs c_csym c_eng fx fy fz
dump_modify     1 element Al Al
min_style cg
minimize 1e-15 1e-15 5000 5000
  2 neighbor list requests
  update every 1 steps, delay 0 steps, check yes
Step PotEng Lx Ly Lz Press Pxx Pyy Pzz c_eatoms
0   -1318.9843    12.807225    128.07225         4.05    875.32429   -2675.7752    7333.2608   -2031.5128   -1318.9843
Loop time of 2.16402 on 1 procs for 477 steps with 398 atoms

Minimization stats:
  Stopping criterion = energy tolerance
  Energy initial, next-to-last, final =
  Force two-norm initial, final = 17.5886 5.69143e-06
  Force max component initial, final = 6.25036 1.10791e-06
  Final line search alpha, max atom move = 1 1.10791e-06
  Iterations, force evaluations = 477 930

undump 1

# ---------- Run Minimization 2---------------------
# Now allow the box to expand/contract perpendicular to the grain boundary
reset_timestep 0
thermo 10
thermo_style custom step pe lx ly lz press pxx pyy pzz c_eatoms
fix 1 all box/relax y 0 vmax 0.001
min_style cg
minimize 1e-15 1e-15 5000 5000
Step PotEng Lx Ly Lz Press Pxx Pyy Pzz c_eatoms
0   -1333.6232    12.807225    128.07225         4.05    162.75648    3.7042736    1470.6718   -986.10669   -1333.6232
Averages over the last 62 of 124 rows, steps 620 to 1227:
PotEng Lx Ly Lz Press Pxx Pyy Pzz c_eatoms
-1333.63 12.8072 128.237 4.05 -848.173 -757.971 0.0910574 -1786.64 -1333.63
Loop time of 5.7994 on 1 procs for 1227 steps with 398 atoms

Minimization stats:
  Stopping criterion = energy tolerance
  Energy initial, next-to-last, final =
  Force two-norm initial, final = 6.09776 0.000113945
  Force max component initial, final = 6.09776 7.86457e-05
  Final line search alpha, max atom move = 1 7.86457e-05
  Iterations, force evaluations = 1227 2453

# ---------- Calculate GB Energy ---------------------
variable minimumenergy equal -3.360000
variable esum equal "v_minimumenergy * count(all)"
variable xseng equal "c_eatoms - (v_minimumenergy * count(all))"
variable gbarea equal "lx * lz * 2"
variable gbe equal "(c_eatoms - (v_minimumenergy * count(all)))/v_gbarea"
variable gbemJm2 equal 0.0352124631661503*16021.7733
variable gbernd equal round(564.16610218266)
GB energy is 564.16610218266 mJ/m^2

# ---------- Dump data into Data file -------------
reset_timestep 0
dump 		1 all cfg 10000 dump.al_sig5_310_*.cfg mass type xs ys zs c_csym c_eng fx fy fz
dump_modify     1 element Al Al
minimize 1e-15 1e-15 5000 5000
Step PotEng Lx Ly Lz Press Pxx Pyy Pzz c_eatoms
0   -1333.6271    12.807225    128.23743         4.05   -848.24115   -758.01797 -0.018967943   -1786.6865   -1333.6271
Loop time of 0.104377 on 1 procs for 20 steps with 398 atoms

Minimization stats:
  Stopping criterion = energy tolerance
  Energy initial, next-to-last, final =
  Force two-norm initial, final = 0.000114015 0.000127141
  Force max component initial, final = 7.87471e-05 9.58419e-05
  Final line search alpha, max atom move = 1 9.58419e-05
  Iterations, force evaluations = 20 40

undump 1

write_restart restart.al_sig5_310_stgb
  2 neighbor list requests
  update every 1 steps, delay 10 steps, check yes

print "All done"
All done
