
 Fire Dynamics Simulator

 Current Date     : October 17, 2022  21:19:17
 Revision         : FDS6.7.9-0-gec52dee42-release
 Revision Date    : Sun Jun 26 14:36:40 2022 -0400
 Compiler         : ifort version 2021.6.0
 Compilation Date : Jun 28, 2022 23:02:23

 MPI Enabled;    Number of MPI Processes:       4
 OpenMP Disabled

 MPI version: 3.1
 MPI library version: Intel(R) MPI Library 2021.6 for Linux* OS


 Job TITLE        : Simple 2D Tunnel
 Job ID string    : dancing_eddies_default


 Grid Dimensions, Mesh     1

   Cells in the X Direction            75
   Cells in the Y Direction             1
   Cells in the Z Direction            40
   Number of Grid Cells              3000


 Physical Dimensions, Mesh     1

   Length (m)                       0.075
   Width  (m)                       0.002
   Height (m)                       0.040
   Initial Time Step (s)            0.004

 Grid Dimensions, Mesh     2

   Cells in the X Direction            75
   Cells in the Y Direction             1
   Cells in the Z Direction            40
   Number of Grid Cells              3000


 Physical Dimensions, Mesh     2

   Length (m)                       0.075
   Width  (m)                       0.002
   Height (m)                       0.040
   Initial Time Step (s)            0.004

 Grid Dimensions, Mesh     3

   Cells in the X Direction            75
   Cells in the Y Direction             1
   Cells in the Z Direction            40
   Number of Grid Cells              3000


 Physical Dimensions, Mesh     3

   Length (m)                       0.075
   Width  (m)                       0.002
   Height (m)                       0.040
   Initial Time Step (s)            0.004

 Grid Dimensions, Mesh     4

   Cells in the X Direction            75
   Cells in the Y Direction             1
   Cells in the Z Direction            40
   Number of Grid Cells              3000


 Physical Dimensions, Mesh     4

   Length (m)                       0.075
   Width  (m)                       0.002
   Height (m)                       0.040
   Initial Time Step (s)            0.004

 Total Number of Grid Cells         12000


 Maximum Cell Aspect Ratio          2.000
 CFL Velocity Norm                      1


 Miscellaneous Parameters

   Simulation Start Time (s)          0.0
   Simulation End Time (s)            2.0
   Background Pressure (Pa)     101325.00
   Ambient Temperature (C)          20.00

   2D Cartesian
   DNS Calculation


 Mass Fraction Transformation Matrix to Convert Species Mixtures (Columns) to Primitive Species (Rows)

                         LJ AIR  
   LJ AIR                1.000000


 Primitive Species Information

   LJ AIR
   Gas Species
   Molecular Weight (g/mol)            28.85476
   Ambient Density (kg/m^3)            1.200
   Enthalpy of Formation (J/kg)        0.00E+00


 Tracked (Lumped) Species Information

   LJ AIR
   Molecular Weight (g/mol)            28.85476
   Ambient Density (kg/m^3)            1.200
   Initial Mass Fraction               1.000
   Enthalpy of Formation (J/kg)      0.00E+00

   Sub Species                    Mass Fraction     Mole Fraction
   LJ AIR                         1.000000E+00      1.000000E+00
 
     Viscosity (kg/m/s) Ambient,  293 K:  1.20E-05
                                  500 K:  1.20E-05
                                 1000 K:  1.20E-05
                                 1500 K:  1.20E-05
   Therm. Cond. (W/m/K) Ambient,  293 K:  1.71E-02
                                  500 K:  1.75E-02
                                 1000 K:  1.94E-02
                                 1500 K:  2.06E-02
        Enthalpy (J/kg) Ambient,  293 K: -1.04E+04
                                  500 K:  2.01E+05
                                 1000 K:  7.48E+05
                                 1500 K:  1.34E+06
    Spec. Heat (J/kg/K) Ambient,  293 K:  1.01E+03
                                  500 K:  1.04E+03
                                 1000 K:  1.15E+03
                                 1500 K:  1.22E+03
   Diff. Coeff. (m^2/s) Ambient,  293 K:  2.00E-05
                                  500 K:  5.00E-05
                                 1000 K:  1.59E-04
                                 1500 K:  3.12E-04


 Material Information


 Surface Conditions

   0 INERT

   1 WALL (DEFAULT)

   2 PLATE

   3 BLOW
     Normal Velocity (m/s)        -0.500
     LJ AIR Mass Fraction         1.000

   4 OPEN
     Passive Vent to Atmosphere

   5 MIRROR
     Symmetry Plane

   6 INTERPOLATED

   7 PERIODIC

   8 HVAC

   9 MASSLESS TRACER

  10 DROPLET

  11 MASSLESS TARGET

  12 PERIODIC FLOW ONLY


 Lagrangian Particle Classes


 Cut-off Density and Temperature

    Minimum Temperature:   -10.0 C
    Maximum Temperature:  2726.8 C
    Minimum Density:  1.200E-01 kg/m3
    Maximum Density:  2.673E+00 kg/m3


 Device Information

   1 ID: pres
     QUANTITY: PRESSURE
     Coordinates (X,Y,Z):    2.000000E-01    0.000000E+00    0.000000E+00
     TEMPORAL STATISTIC: TIME AVERAGE
   2 ID: error
     QUANTITY: MAXIMUM VELOCITY ERROR
     Coordinates (X,Y,Z):    1.000000E-05    0.000000E+00    0.000000E+00
     TEMPORAL STATISTIC: TIME AVERAGE
   3 ID: iter
     QUANTITY: PRESSURE ITERATIONS
     Coordinates (X,Y,Z):    1.000000E-05    0.000000E+00    0.000000E+00
     TEMPORAL STATISTIC: TIME AVERAGE


 Slice File Information, Mesh     1

   1 Nodes:   0  75   1   1   0  40, Quantity: VELOCITY
   2 Nodes:   0  75   1   1   0  40, Quantity: U-VELOCITY
   3 Nodes:   0  75   1   1   0  40, Quantity: W-VELOCITY
   4 Nodes:   0  75   1   1   0  40, Quantity: H
   5 Nodes:   0  75   1   1   0  40, Quantity: PRESSURE


 Radiation Model Information

   Number of control angles   60
   Time step increment         2
   Angle increment             4
   Phi band   N_theta Solid angle
     1:       60     0.209
 
 

 Run Time Diagnostics

       Time Step       1   October 17, 2022  21:19:17
       Step Size:    0.395E-02 s, Total Time:      0.004 s
       Pressure Iterations: 5
       Maximum Velocity Error:  0.48E-03 on Mesh 2 at (25,1,20)
       Maximum Pressure Error:  0.22E-09 on Mesh 1 at (27,1,14)
       ---------------------------------------------------------------
       Mesh    1
       Max CFL number:  0.12E-01 at (20,1,24)
       Max divergence:  0.22E-12 at (33,1,10)
       Min divergence: -0.22E-12 at (17,1,6)
       Max VN number:   0.22E+00 at (75,1,40)
       Mesh    2
       Max CFL number:  0.26E-01 at (28,1,15)
       Max divergence:  0.11E-12 at (12,1,14)
       Min divergence: -0.14E-12 at (4,1,24)
       Max VN number:   0.22E+00 at (75,1,40)
       Mesh    3
       Max CFL number:  0.78E-02 at (1,1,5)
       Max divergence:  0.11E-12 at (15,1,25)
       Min divergence: -0.11E-12 at (9,1,22)
       Max VN number:   0.22E+00 at (75,1,40)
       Mesh    4
       Max CFL number:  0.78E-02 at (1,1,5)
       Max divergence:  0.55E-13 at (1,1,11)
       Min divergence: -0.42E-13 at (4,1,28)
       Max VN number:   0.22E+00 at (75,1,40)
 
       Time Step       2   October 17, 2022  21:19:17
       Step Size:    0.395E-02 s, Total Time:      0.008 s
       Pressure Iterations: 2
       Maximum Velocity Error:  0.44E-03 on Mesh 2 at (25,1,20)
       Maximum Pressure Error:  0.22E-09 on Mesh 1 at (39,1,23)
       ---------------------------------------------------------------
       Mesh    1
       Max CFL number:  0.24E-01 at (20,1,24)
       Max divergence:  0.23E-12 at (46,1,14)
       Min divergence: -0.26E-12 at (38,1,20)
       Max VN number:   0.22E+00 at (31,1,33)
       Mesh    2
       Max CFL number:  0.55E-01 at (25,1,26)
       Max divergence:  0.13E-12 at (57,1,15)
       Min divergence: -0.13E-12 at (24,1,27)
       Max VN number:   0.22E+00 at (5,1,40)
       Mesh    3
       Max CFL number:  0.16E-01 at (1,1,5)
       Max divergence:  0.10E-12 at (16,1,21)
       Min divergence: -0.11E-12 at (1,1,17)
       Max VN number:   0.22E+00 at (17,1,40)
       Mesh    4
       Max CFL number:  0.16E-01 at (1,1,5)
       Max divergence:  0.63E-13 at (8,1,23)
       Min divergence: -0.73E-13 at (9,1,32)
       Max VN number:   0.22E+00 at (1,1,39)
 
       Time Step       3   October 17, 2022  21:19:17
       Step Size:    0.395E-02 s, Total Time:       0.01 s
       Pressure Iterations: 1
       Maximum Velocity Error:  0.30E-03 on Mesh 2 at (25,1,20)
       Maximum Pressure Error:  0.26E-09 on Mesh 1 at (41,1,6)
       ---------------------------------------------------------------
       Mesh    1
       Max CFL number:  0.35E-01 at (20,1,24)
       Max divergence:  0.27E-12 at (41,1,38)
       Min divergence: -0.24E-12 at (14,1,31)
       Max VN number:   0.22E+00 at (8,1,30)
       Mesh    2
       Max CFL number:  0.83E-01 at (25,1,26)
       Max divergence:  0.15E-12 at (28,1,24)
       Min divergence: -0.14E-12 at (20,1,37)
       Max VN number:   0.22E+00 at (63,1,11)
       Mesh    3
       Max CFL number:  0.23E-01 at (1,1,5)
       Max divergence:  0.13E-12 at (1,1,23)
       Min divergence: -0.12E-12 at (23,1,29)
       Max VN number:   0.22E+00 at (16,1,39)
       Mesh    4
       Max CFL number:  0.23E-01 at (1,1,5)
       Max divergence:  0.64E-13 at (5,1,18)
       Min divergence: -0.58E-13 at (4,1,22)
       Max VN number:   0.22E+00 at (10,1,36)
 
       Time Step       4   October 17, 2022  21:19:17
       Step Size:    0.395E-02 s, Total Time:       0.02 s
       Pressure Iterations: 1
       Maximum Velocity Error:  0.14E-03 on Mesh 2 at (25,1,20)
       Maximum Pressure Error:  0.25E-09 on Mesh 1 at (7,1,34)
       ---------------------------------------------------------------
       Mesh    1
       Max CFL number:  0.46E-01 at (20,1,24)
       Max divergence:  0.25E-12 at (7,1,35)
       Min divergence: -0.27E-12 at (52,1,35)
       Max VN number:   0.22E+00 at (41,1,11)
       Mesh    2
       Max CFL number:  0.11E+00 at (25,1,26)
       Max divergence:  0.16E-12 at (46,1,30)
       Min divergence: -0.13E-12 at (35,1,23)
       Max VN number:   0.22E+00 at (38,1,36)
       Mesh    3
       Max CFL number:  0.31E-01 at (1,1,5)
       Max divergence:  0.12E-12 at (6,1,34)
       Min divergence: -0.12E-12 at (7,1,10)
       Max VN number:   0.22E+00 at (19,1,38)
       Mesh    4
       Max CFL number:  0.31E-01 at (1,1,5)
       Max divergence:  0.61E-13 at (6,1,21)
       Min divergence: -0.61E-13 at (1,1,33)
       Max VN number:   0.22E+00 at (12,1,39)
 
       Time Step       5   October 17, 2022  21:19:17
       Step Size:    0.395E-02 s, Total Time:       0.02 s
       Pressure Iterations: 1
       Maximum Velocity Error:  0.80E-04 on Mesh 1 at (21,1,25)
       Maximum Pressure Error:  0.22E-09 on Mesh 1 at (14,1,38)
       ---------------------------------------------------------------
       Mesh    1
       Max CFL number:  0.57E-01 at (20,1,24)
       Max divergence:  0.27E-12 at (17,1,34)
       Min divergence: -0.29E-12 at (18,1,32)
       Max VN number:   0.22E+00 at (27,1,29)
       Mesh    2
       Max CFL number:  0.14E+00 at (25,1,26)
       Max divergence:  0.15E-12 at (35,1,3)
       Min divergence: -0.14E-12 at (73,1,11)
       Max VN number:   0.22E+00 at (36,1,37)
       Mesh    3
       Max CFL number:  0.39E-01 at (1,1,5)
       Max divergence:  0.12E-12 at (1,1,22)
       Min divergence: -0.13E-12 at (18,1,10)
       Max VN number:   0.22E+00 at (25,1,29)
       Mesh    4
       Max CFL number:  0.39E-01 at (1,1,5)
       Max divergence:  0.64E-13 at (6,1,10)
       Min divergence: -0.61E-13 at (1,1,1)
       Max VN number:   0.22E+00 at (12,1,39)
 
       Time Step       6   October 17, 2022  21:19:17
       Step Size:    0.395E-02 s, Total Time:       0.02 s
       Pressure Iterations: 1
       Maximum Velocity Error:  0.73E-04 on Mesh 1 at (21,1,25)
       Maximum Pressure Error:  0.24E-09 on Mesh 1 at (43,1,12)
       ---------------------------------------------------------------
       Mesh    1
       Max CFL number:  0.68E-01 at (20,1,24)
       Max divergence:  0.29E-12 at (40,1,9)
       Min divergence: -0.25E-12 at (53,1,35)
       Max VN number:   0.22E+00 at (8,1,30)
       Mesh    2
       Max CFL number:  0.16E+00 at (25,1,26)
       Max divergence:  0.14E-12 at (25,1,27)
       Min divergence: -0.13E-12 at (1,1,31)
       Max VN number:   0.22E+00 at (59,1,30)
       Mesh    3
       Max CFL number:  0.47E-01 at (1,1,5)
       Max divergence:  0.13E-12 at (5,1,5)
       Min divergence: -0.15E-12 at (2,1,38)
       Max VN number:   0.22E+00 at (4,1,30)
       Mesh    4
       Max CFL number:  0.47E-01 at (1,1,5)
       Max divergence:  0.60E-13 at (9,1,2)
       Min divergence: -0.65E-13 at (1,1,29)
       Max VN number:   0.22E+00 at (1,1,8)
 
       Time Step       7   October 17, 2022  21:19:17
       Step Size:    0.395E-02 s, Total Time:       0.03 s
       Pressure Iterations: 1
       Maximum Velocity Error:  0.71E-04 on Mesh 1 at (21,1,25)
       Maximum Pressure Error:  0.23E-09 on Mesh 1 at (5,1,33)
       ---------------------------------------------------------------
       Mesh    1
       Max CFL number:  0.79E-01 at (20,1,24)
       Max divergence:  0.25E-12 at (12,1,16)
       Min divergence: -0.27E-12 at (26,1,38)
       Max VN number:   0.22E+00 at (4,1,3)
       Mesh    2
       Max CFL number:  0.19E+00 at (25,1,26)
       Max divergence:  0.16E-12 at (32,1,34)
       Min divergence: -0.15E-12 at (33,1,34)
       Max VN number:   0.22E+00 at (19,1,39)
       Mesh    3
       Max CFL number:  0.55E-01 at (1,1,5)
       Max divergence:  0.15E-12 at (1,1,26)
       Min divergence: -0.13E-12 at (8,1,12)
       Max VN number:   0.22E+00 at (14,1,13)
       Mesh    4
       Max CFL number:  0.55E-01 at (1,1,5)
       Max divergence:  0.57E-13 at (9,1,2)
       Min divergence: -0.60E-13 at (12,1,25)
       Max VN number:   0.22E+00 at (5,1,36)
 
       Time Step       8   October 17, 2022  21:19:17
       Step Size:    0.395E-02 s, Total Time:       0.03 s
       Pressure Iterations: 1
       Maximum Velocity Error:  0.72E-04 on Mesh 1 at (21,1,25)
       Maximum Pressure Error:  0.25E-09 on Mesh 1 at (44,1,35)
       ---------------------------------------------------------------
       Mesh    1
       Max CFL number:  0.89E-01 at (20,1,24)
       Max divergence:  0.25E-12 at (17,1,37)
       Min divergence: -0.26E-12 at (18,1,37)
       Max VN number:   0.22E+00 at (6,1,5)
       Mesh    2
       Max CFL number:  0.21E+00 at (25,1,26)
       Max divergence:  0.16E-12 at (65,1,29)
       Min divergence: -0.16E-12 at (67,1,38)
       Max VN number:   0.22E+00 at (1,1,30)
       Mesh    3
       Max CFL number:  0.62E-01 at (1,1,5)
       Max divergence:  0.11E-12 at (5,1,8)
       Min divergence: -0.13E-12 at (19,1,19)
       Max VN number:   0.22E+00 at (1,1,29)
       Mesh    4
       Max CFL number:  0.62E-01 at (1,1,5)
       Max divergence:  0.59E-13 at (6,1,22)
       Min divergence: -0.56E-13 at (5,1,31)
       Max VN number:   0.22E+00 at (5,1,28)
 
       Time Step       9   October 17, 2022  21:19:17
       Step Size:    0.395E-02 s, Total Time:       0.04 s
       Pressure Iterations: 1
       Maximum Velocity Error:  0.74E-04 on Mesh 1 at (21,1,25)
       Maximum Pressure Error:  0.28E-09 on Mesh 1 at (23,1,24)
       ---------------------------------------------------------------
       Mesh    1
       Max CFL number:  0.99E-01 at (20,1,24)
       Max divergence:  0.26E-12 at (17,1,4)
       Min divergence: -0.25E-12 at (16,1,16)
       Max VN number:   0.22E+00 at (3,1,5)
       Mesh    2
       Max CFL number:  0.23E+00 at (25,1,26)
       Max divergence:  0.19E-12 at (69,1,7)
       Min divergence: -0.13E-12 at (68,1,7)
       Max VN number:   0.22E+00 at (41,1,38)
       Mesh    3
       Max CFL number:  0.70E-01 at (1,1,5)
       Max divergence:  0.13E-12 at (19,1,32)
       Min divergence: -0.11E-12 at (2,1,34)
       Max VN number:   0.22E+00 at (14,1,39)
       Mesh    4
       Max CFL number:  0.70E-01 at (1,1,5)
       Max divergence:  0.55E-13 at (1,1,40)
       Min divergence: -0.77E-13 at (1,1,17)
       Max VN number:   0.22E+00 at (5,1,23)
 
       Time Step      10   October 17, 2022  21:19:17
       Step Size:    0.395E-02 s, Total Time:       0.04 s
       Pressure Iterations: 1
       Maximum Velocity Error:  0.10E-03 on Mesh 2 at (27,1,16)
       Maximum Pressure Error:  0.21E-09 on Mesh 1 at (36,1,37)
       ---------------------------------------------------------------
       Mesh    1
       Max CFL number:  0.11E+00 at (20,1,24)
       Max divergence:  0.26E-12 at (2,1,38)
       Min divergence: -0.27E-12 at (14,1,4)
       Max VN number:   0.22E+00 at (49,1,31)
       Mesh    2
       Max CFL number:  0.25E+00 at (25,1,26)
       Max divergence:  0.14E-12 at (25,1,35)
       Min divergence: -0.15E-12 at (29,1,10)
       Max VN number:   0.22E+00 at (1,1,35)
       Mesh    3
       Max CFL number:  0.78E-01 at (1,1,5)
       Max divergence:  0.14E-12 at (25,1,27)
       Min divergence: -0.13E-12 at (19,1,4)
       Max VN number:   0.22E+00 at (15,1,39)
       Mesh    4
       Max CFL number:  0.78E-01 at (1,1,5)
       Max divergence:  0.67E-13 at (1,1,35)
       Min divergence: -0.74E-13 at (1,1,34)
       Max VN number:   0.22E+00 at (6,1,37)
 
       Time Step      20   October 17, 2022  21:19:17
       Step Size:    0.395E-02 s, Total Time:       0.08 s
       Pressure Iterations: 1
       Maximum Velocity Error:  0.24E-03 on Mesh 2 at (25,1,16)
       Maximum Pressure Error:  0.22E-09 on Mesh 1 at (15,1,31)
       ---------------------------------------------------------------
       Mesh    1
       Max CFL number:  0.21E+00 at (20,1,24)
       Max divergence:  0.24E-12 at (44,1,37)
       Min divergence: -0.27E-12 at (11,1,33)
       Max VN number:   0.22E+00 at (51,1,10)
       Mesh    2
       Max CFL number:  0.48E+00 at (25,1,26)
       Max divergence:  0.14E-12 at (24,1,1)
       Min divergence: -0.12E-12 at (48,1,27)
       Max VN number:   0.22E+00 at (53,1,25)
       Mesh    3
       Max CFL number:  0.16E+00 at (1,1,5)
       Max divergence:  0.13E-12 at (14,1,28)
       Min divergence: -0.11E-12 at (13,1,39)
       Max VN number:   0.22E+00 at (25,1,17)
       Mesh    4
       Max CFL number:  0.16E+00 at (1,1,5)
       Max divergence:  0.57E-13 at (11,1,20)
       Min divergence: -0.61E-13 at (2,1,1)
       Max VN number:   0.22E+00 at (6,1,28)
 
       Time Step      30   October 17, 2022  21:19:18
       Step Size:    0.274E-02 s, Total Time:       0.11 s
       Pressure Iterations: 1
       Maximum Velocity Error:  0.17E-03 on Mesh 2 at (25,1,16)
       Maximum Pressure Error:  0.22E-09 on Mesh 1 at (11,1,13)
       ---------------------------------------------------------------
       Mesh    1
       Max CFL number:  0.21E+00 at (20,1,24)
       Max divergence:  0.16E-12 at (53,1,10)
       Min divergence: -0.17E-12 at (28,1,14)
       Max VN number:   0.15E+00 at (5,1,10)
       Mesh    2
       Max CFL number:  0.47E+00 at (25,1,15)
       Max divergence:  0.10E-12 at (75,1,25)
       Min divergence: -0.10E-12 at (29,1,3)
       Max VN number:   0.15E+00 at (22,1,37)
       Mesh    3
       Max CFL number:  0.15E+00 at (1,1,5)
       Max divergence:  0.89E-13 at (15,1,19)
       Min divergence: -0.78E-13 at (14,1,34)
       Max VN number:   0.15E+00 at (16,1,28)
       Mesh    4
       Max CFL number:  0.15E+00 at (1,1,5)
       Max divergence:  0.47E-13 at (5,1,23)
       Min divergence: -0.49E-13 at (1,1,6)
       Max VN number:   0.15E+00 at (7,1,28)
 
       Time Step      40   October 17, 2022  21:19:18
       Step Size:    0.213E-02 s, Total Time:       0.13 s
       Pressure Iterations: 1
       Maximum Velocity Error:  0.12E-03 on Mesh 2 at (25,1,16)
       Maximum Pressure Error:  0.26E-09 on Mesh 1 at (7,1,25)
       ---------------------------------------------------------------
       Mesh    1
       Max CFL number:  0.20E+00 at (20,1,24)
       Max divergence:  0.13E-12 at (51,1,35)
       Min divergence: -0.14E-12 at (32,1,27)
       Max VN number:   0.12E+00 at (70,1,38)
       Mesh    2
       Max CFL number:  0.46E+00 at (25,1,15)
       Max divergence:  0.93E-13 at (1,1,23)
       Min divergence: -0.72E-13 at (73,1,21)
       Max VN number:   0.12E+00 at (45,1,12)
       Mesh    3
       Max CFL number:  0.14E+00 at (1,1,5)
       Max divergence:  0.11E-12 at (6,1,29)
       Min divergence: -0.79E-13 at (7,1,38)
       Max VN number:   0.12E+00 at (33,1,38)
       Mesh    4
       Max CFL number:  0.14E+00 at (1,1,5)
       Max divergence:  0.41E-13 at (8,1,11)
       Min divergence: -0.35E-13 at (10,1,17)
       Max VN number:   0.12E+00 at (3,1,31)
 
       Time Step      50   October 17, 2022  21:19:18
       Step Size:    0.191E-02 s, Total Time:       0.15 s
       Pressure Iterations: 1
       Maximum Velocity Error:  0.11E-03 on Mesh 2 at (25,1,16)
       Maximum Pressure Error:  0.22E-09 on Mesh 1 at (23,1,31)
       ---------------------------------------------------------------
       Mesh    1
       Max CFL number:  0.21E+00 at (20,1,24)
       Max divergence:  0.13E-12 at (48,1,4)
       Min divergence: -0.13E-12 at (11,1,14)
       Max VN number:   0.11E+00 at (2,1,36)
       Mesh    2
       Max CFL number:  0.47E+00 at (25,1,15)
       Max divergence:  0.76E-13 at (1,1,8)
       Min divergence: -0.63E-13 at (67,1,36)
       Max VN number:   0.11E+00 at (40,1,37)
       Mesh    3
       Max CFL number:  0.15E+00 at (1,1,5)
       Max divergence:  0.88E-13 at (1,1,34)
       Min divergence: -0.85E-13 at (4,1,16)
       Max VN number:   0.11E+00 at (53,1,38)
       Mesh    4
       Max CFL number:  0.15E+00 at (1,1,5)
       Max divergence:  0.44E-13 at (7,1,24)
       Min divergence: -0.42E-13 at (6,1,24)
       Max VN number:   0.11E+00 at (7,1,28)
 
       Time Step      60   October 17, 2022  21:19:18
       Step Size:    0.171E-02 s, Total Time:       0.17 s
       Pressure Iterations: 1
       Maximum Velocity Error:  0.96E-04 on Mesh 2 at (25,1,16)
       Maximum Pressure Error:  0.24E-09 on Mesh 1 at (11,1,23)
       ---------------------------------------------------------------
       Mesh    1
       Max CFL number:  0.21E+00 at (20,1,24)
       Max divergence:  0.13E-12 at (20,1,25)
       Min divergence: -0.14E-12 at (54,1,19)
       Max VN number:   0.96E-01 at (72,1,35)
       Mesh    2
       Max CFL number:  0.47E+00 at (25,1,15)
       Max divergence:  0.68E-13 at (47,1,10)
       Min divergence: -0.77E-13 at (73,1,14)
       Max VN number:   0.96E-01 at (40,1,37)
       Mesh    3
       Max CFL number:  0.15E+00 at (1,1,5)
       Max divergence:  0.69E-13 at (23,1,40)
       Min divergence: -0.90E-13 at (1,1,7)
       Max VN number:   0.96E-01 at (66,1,37)
       Mesh    4
       Max CFL number:  0.15E+00 at (1,1,5)
       Max divergence:  0.35E-13 at (13,1,36)
       Min divergence: -0.36E-13 at (34,1,39)
       Max VN number:   0.96E-01 at (7,1,28)
 
       Time Step      70   October 17, 2022  21:19:18
       Step Size:    0.154E-02 s, Total Time:       0.19 s
       Pressure Iterations: 1
       Maximum Velocity Error:  0.81E-04 on Mesh 2 at (25,1,16)
       Maximum Pressure Error:  0.21E-09 on Mesh 1 at (34,1,7)
       ---------------------------------------------------------------
       Mesh    1
       Max CFL number:  0.21E+00 at (20,1,24)
       Max divergence:  0.97E-13 at (44,1,4)
       Min divergence: -0.12E-12 at (7,1,22)
       Max VN number:   0.87E-01 at (73,1,35)
       Mesh    2
       Max CFL number:  0.46E+00 at (25,1,15)
       Max divergence:  0.67E-13 at (28,1,11)
       Min divergence: -0.77E-13 at (26,1,11)
       Max VN number:   0.87E-01 at (23,1,37)
       Mesh    3
       Max CFL number:  0.14E+00 at (1,1,5)
       Max divergence:  0.78E-13 at (46,1,35)
       Min divergence: -0.82E-13 at (5,1,16)
       Max VN number:   0.87E-01 at (53,1,38)
       Mesh    4
       Max CFL number:  0.14E+00 at (1,1,5)
       Max divergence:  0.38E-13 at (2,1,5)
       Min divergence: -0.32E-13 at (15,1,32)
       Max VN number:   0.87E-01 at (3,1,31)
 
       Time Step      80   October 17, 2022  21:19:18
       Step Size:    0.138E-02 s, Total Time:       0.20 s
       Pressure Iterations: 1
       Maximum Velocity Error:  0.62E-04 on Mesh 2 at (25,1,16)
       Maximum Pressure Error:  0.20E-09 on Mesh 1 at (20,1,22)
       ---------------------------------------------------------------
       Mesh    1
       Max CFL number:  0.21E+00 at (20,1,24)
       Max divergence:  0.94E-13 at (41,1,4)
       Min divergence: -0.11E-12 at (27,1,18)
       Max VN number:   0.78E-01 at (75,1,30)
       Mesh    2
       Max CFL number:  0.45E+00 at (25,1,15)
       Max divergence:  0.64E-13 at (30,1,8)
       Min divergence: -0.60E-13 at (18,1,7)
       Max VN number:   0.78E-01 at (23,1,37)
       Mesh    3
       Max CFL number:  0.14E+00 at (1,1,5)
       Max divergence:  0.68E-13 at (55,1,27)
       Min divergence: -0.74E-13 at (6,1,4)
       Max VN number:   0.78E-01 at (53,1,38)
       Mesh    4
       Max CFL number:  0.14E+00 at (1,1,5)
       Max divergence:  0.39E-13 at (1,1,27)
       Min divergence: -0.36E-13 at (2,1,27)
       Max VN number:   0.78E-01 at (3,1,31)
 
       Time Step      90   October 17, 2022  21:19:18
       Step Size:    0.138E-02 s, Total Time:       0.22 s
       Pressure Iterations: 1
       Maximum Velocity Error:  0.73E-04 on Mesh 2 at (25,1,16)
       Maximum Pressure Error:  0.20E-09 on Mesh 1 at (4,1,37)
       ---------------------------------------------------------------
       Mesh    1
       Max CFL number:  0.22E+00 at (20,1,24)
       Max divergence:  0.11E-12 at (20,1,25)
       Min divergence: -0.97E-13 at (30,1,10)
       Max VN number:   0.78E-01 at (75,1,30)
       Mesh    2
       Max CFL number:  0.48E+00 at (25,1,15)
       Max divergence:  0.74E-13 at (72,1,1)
       Min divergence: -0.59E-13 at (21,1,39)
       Max VN number:   0.78E-01 at (23,1,37)
       Mesh    3
       Max CFL number:  0.15E+00 at (1,1,5)
       Max divergence:  0.90E-13 at (23,1,40)
       Min divergence: -0.70E-13 at (6,1,28)
       Max VN number:   0.78E-01 at (53,1,38)
       Mesh    4
       Max CFL number:  0.15E+00 at (1,1,5)
       Max divergence:  0.36E-13 at (9,1,23)
       Min divergence: -0.36E-13 at (6,1,24)
       Max VN number:   0.78E-01 at (7,1,28)
 
       Time Step     100   October 17, 2022  21:19:19
       Step Size:    0.124E-02 s, Total Time:       0.23 s
       Pressure Iterations: 1
       Maximum Velocity Error:  0.59E-04 on Mesh 2 at (25,1,16)
       Maximum Pressure Error:  0.23E-09 on Mesh 1 at (6,1,32)
       ---------------------------------------------------------------
       Mesh    1
       Max CFL number:  0.21E+00 at (20,1,24)
       Max divergence:  0.99E-13 at (20,1,25)
       Min divergence: -0.10E-12 at (30,1,10)
       Max VN number:   0.70E-01 at (75,1,20)
       Mesh    2
       Max CFL number:  0.45E+00 at (25,1,15)
       Max divergence:  0.74E-13 at (72,1,1)
       Min divergence: -0.65E-13 at (26,1,7)
       Max VN number:   0.70E-01 at (4,1,37)
       Mesh    3
       Max CFL number:  0.14E+00 at (1,1,5)
       Max divergence:  0.78E-13 at (23,1,40)
       Min divergence: -0.79E-13 at (7,1,24)
       Max VN number:   0.70E-01 at (53,1,38)
       Mesh    4
       Max CFL number:  0.14E+00 at (1,1,5)
       Max divergence:  0.34E-13 at (37,1,8)
       Min divergence: -0.41E-13 at (38,1,8)
       Max VN number:   0.70E-01 at (3,1,31)
 
       Time Step     200   October 17, 2022  21:19:20
       Step Size:    0.902E-03 s, Total Time:       0.34 s
       Pressure Iterations: 1
       Maximum Velocity Error:  0.41E-04 on Mesh 2 at (25,1,16)
       Maximum Pressure Error:  0.21E-09 on Mesh 1 at (5,1,13)
       ---------------------------------------------------------------
       Mesh    1
       Max CFL number:  0.23E+00 at (20,1,24)
       Max divergence:  0.11E-12 at (21,1,26)
       Min divergence: -0.12E-12 at (72,1,16)
       Max VN number:   0.51E-01 at (75,1,30)
       Mesh    2
       Max CFL number:  0.46E+00 at (25,1,15)
       Max divergence:  0.80E-13 at (72,1,1)
       Min divergence: -0.80E-13 at (42,1,34)
       Max VN number:   0.51E-01 at (23,1,37)
       Mesh    3
       Max CFL number:  0.15E+00 at (1,1,5)
       Max divergence:  0.85E-13 at (23,1,40)
       Min divergence: -0.11E-12 at (8,1,20)
       Max VN number:   0.51E-01 at (53,1,38)
       Mesh    4
       Max CFL number:  0.15E+00 at (1,1,5)
       Max divergence:  0.59E-13 at (75,1,5)
       Min divergence: -0.55E-13 at (10,1,17)
       Max VN number:   0.51E-01 at (7,1,28)
 
       Time Step     300   October 17, 2022  21:19:21
       Step Size:    0.730E-03 s, Total Time:       0.42 s
       Pressure Iterations: 1
       Maximum Velocity Error:  0.28E-04 on Mesh 2 at (25,1,16)
       Maximum Pressure Error:  0.23E-09 on Mesh 1 at (23,1,35)
       ---------------------------------------------------------------
       Mesh    1
       Max CFL number:  0.23E+00 at (20,1,24)
       Max divergence:  0.12E-12 at (43,1,17)
       Min divergence: -0.12E-12 at (15,1,26)
       Max VN number:   0.41E-01 at (75,1,30)
       Mesh    2
       Max CFL number:  0.45E+00 at (25,1,15)
       Max divergence:  0.10E-12 at (36,1,31)
       Min divergence: -0.14E-12 at (25,1,15)
       Max VN number:   0.41E-01 at (23,1,37)
       Mesh    3
       Max CFL number:  0.15E+00 at (1,1,6)
       Max divergence:  0.11E-12 at (23,1,40)
       Min divergence: -0.12E-12 at (7,1,7)
       Max VN number:   0.41E-01 at (53,1,38)
       Mesh    4
       Max CFL number:  0.15E+00 at (1,1,5)
       Max divergence:  0.58E-13 at (26,1,9)
       Min divergence: -0.52E-13 at (6,1,21)
       Max VN number:   0.41E-01 at (7,1,28)
 
       Time Step     400   October 17, 2022  21:19:22
       Step Size:    0.657E-03 s, Total Time:       0.49 s
       Pressure Iterations: 1
       Maximum Velocity Error:  0.44E-04 on Mesh 2 at (75,1,21)
       Maximum Pressure Error:  0.26E-09 on Mesh 2 at (27,1,15)
       ---------------------------------------------------------------
       Mesh    1
       Max CFL number:  0.24E+00 at (20,1,24)
       Max divergence:  0.12E-12 at (15,1,36)
       Min divergence: -0.15E-12 at (73,1,38)
       Max VN number:   0.37E-01 at (75,1,30)
       Mesh    2
       Max CFL number:  0.46E+00 at (25,1,15)
       Max divergence:  0.12E-12 at (33,1,29)
       Min divergence: -0.12E-12 at (34,1,29)
       Max VN number:   0.37E-01 at (23,1,37)
       Mesh    3
       Max CFL number:  0.15E+00 at (1,1,6)
       Max divergence:  0.11E-12 at (1,1,31)
       Min divergence: -0.13E-12 at (8,1,31)
       Max VN number:   0.37E-01 at (53,1,38)
       Mesh    4
       Max CFL number:  0.15E+00 at (1,1,5)
       Max divergence:  0.66E-13 at (75,1,2)
       Min divergence: -0.63E-13 at (2,1,27)
       Max VN number:   0.37E-01 at (3,1,31)
 
       Time Step     500   October 17, 2022  21:19:24
       Step Size:    0.590E-03 s, Total Time:       0.56 s
       Pressure Iterations: 1
       Maximum Velocity Error:  0.68E-04 on Mesh 2 at (75,1,21)
       Maximum Pressure Error:  0.30E-09 on Mesh 2 at (27,1,15)
       ---------------------------------------------------------------
       Mesh    1
       Max CFL number:  0.24E+00 at (20,1,24)
       Max divergence:  0.13E-12 at (43,1,17)
       Min divergence: -0.15E-12 at (73,1,35)
       Max VN number:   0.33E-01 at (75,1,30)
       Mesh    2
       Max CFL number:  0.46E+00 at (25,1,15)
       Max divergence:  0.14E-12 at (26,1,26)
       Min divergence: -0.13E-12 at (45,1,30)
       Max VN number:   0.33E-01 at (23,1,37)
       Mesh    3
       Max CFL number:  0.16E+00 at (1,1,7)
       Max divergence:  0.11E-12 at (10,1,29)
       Min divergence: -0.17E-12 at (9,1,29)
       Max VN number:   0.33E-01 at (53,1,38)
       Mesh    4
       Max CFL number:  0.15E+00 at (1,1,5)
       Max divergence:  0.90E-13 at (3,1,27)
       Min divergence: -0.75E-13 at (23,1,27)
       Max VN number:   0.33E-01 at (3,1,31)
 
       Time Step     600   October 17, 2022  21:19:25
       Step Size:    0.590E-03 s, Total Time:       0.62 s
       Pressure Iterations: 1
       Maximum Velocity Error:  0.93E-04 on Mesh 2 at (75,1,21)
       Maximum Pressure Error:  0.45E-09 on Mesh 2 at (26,1,27)
       ---------------------------------------------------------------
       Mesh    1
       Max CFL number:  0.27E+00 at (20,1,24)
       Max divergence:  0.16E-12 at (66,1,21)
       Min divergence: -0.16E-12 at (41,1,31)
       Max VN number:   0.33E-01 at (75,1,30)
       Mesh    2
       Max CFL number:  0.49E+00 at (25,1,15)
       Max divergence:  0.16E-12 at (27,1,10)
       Min divergence: -0.14E-12 at (26,1,29)
       Max VN number:   0.33E-01 at (23,1,37)
       Mesh    3
       Max CFL number:  0.17E+00 at (1,1,7)
       Max divergence:  0.14E-12 at (1,1,31)
       Min divergence: -0.18E-12 at (7,1,11)
       Max VN number:   0.33E-01 at (53,1,38)
       Mesh    4
       Max CFL number:  0.16E+00 at (1,1,5)
       Max divergence:  0.91E-13 at (75,1,7)
       Min divergence: -0.78E-13 at (2,1,27)
       Max VN number:   0.33E-01 at (7,1,28)
 
       Time Step     700   October 17, 2022  21:19:26
       Step Size:    0.531E-03 s, Total Time:       0.67 s
       Pressure Iterations: 1
       Maximum Velocity Error:  0.99E-04 on Mesh 2 at (75,1,21)
       Maximum Pressure Error:  0.36E-09 on Mesh 2 at (26,1,27)
       ---------------------------------------------------------------
       Mesh    1
       Max CFL number:  0.26E+00 at (20,1,24)
       Max divergence:  0.15E-12 at (41,1,15)
       Min divergence: -0.20E-12 at (72,1,16)
       Max VN number:   0.30E-01 at (75,1,30)
       Mesh    2
       Max CFL number:  0.48E+00 at (25,1,15)
       Max divergence:  0.15E-12 at (19,1,34)
       Min divergence: -0.15E-12 at (50,1,11)
       Max VN number:   0.30E-01 at (23,1,37)
       Mesh    3
       Max CFL number:  0.17E+00 at (1,1,8)
       Max divergence:  0.15E-12 at (10,1,29)
       Min divergence: -0.19E-12 at (7,1,11)
       Max VN number:   0.30E-01 at (53,1,38)
       Mesh    4
       Max CFL number:  0.16E+00 at (1,1,6)
       Max divergence:  0.11E-12 at (75,1,19)
       Min divergence: -0.74E-13 at (34,1,38)
       Max VN number:   0.30E-01 at (3,1,31)
 
       Time Step     800   October 17, 2022  21:19:28
       Step Size:    0.478E-03 s, Total Time:       0.72 s
       Pressure Iterations: 1
       Maximum Velocity Error:  0.11E-03 on Mesh 2 at (75,1,22)
       Maximum Pressure Error:  0.42E-09 on Mesh 2 at (26,1,27)
       ---------------------------------------------------------------
       Mesh    1
       Max CFL number:  0.25E+00 at (20,1,24)
       Max divergence:  0.19E-12 at (43,1,17)
       Min divergence: -0.20E-12 at (44,1,29)
       Max VN number:   0.27E-01 at (75,1,30)
       Mesh    2
       Max CFL number:  0.45E+00 at (25,1,15)
       Max divergence:  0.20E-12 at (41,1,34)
       Min divergence: -0.20E-12 at (38,1,36)
       Max VN number:   0.27E-01 at (23,1,37)
       Mesh    3
       Max CFL number:  0.18E+00 at (1,1,10)
       Max divergence:  0.16E-12 at (50,1,7)
       Min divergence: -0.21E-12 at (8,1,6)
       Max VN number:   0.27E-01 at (53,1,38)
       Mesh    4
       Max CFL number:  0.15E+00 at (1,1,11)
       Max divergence:  0.11E-12 at (75,1,33)
       Min divergence: -0.93E-13 at (6,1,13)
       Max VN number:   0.27E-01 at (3,1,31)
 
       Time Step     900   October 17, 2022  21:19:29
       Step Size:    0.478E-03 s, Total Time:       0.77 s
       Pressure Iterations: 1
       Maximum Velocity Error:  0.14E-03 on Mesh 2 at (75,1,23)
       Maximum Pressure Error:  0.50E-09 on Mesh 2 at (26,1,27)
       ---------------------------------------------------------------
       Mesh    1
       Max CFL number:  0.26E+00 at (20,1,24)
       Max divergence:  0.18E-12 at (66,1,21)
       Min divergence: -0.22E-12 at (72,1,18)
       Max VN number:   0.27E-01 at (75,1,30)
       Mesh    2
       Max CFL number:  0.47E+00 at (25,1,15)
       Max divergence:  0.20E-12 at (37,1,33)
       Min divergence: -0.19E-12 at (42,1,38)
       Max VN number:   0.27E-01 at (23,1,37)
       Mesh    3
       Max CFL number:  0.20E+00 at (1,1,13)
       Max divergence:  0.17E-12 at (9,1,6)
       Min divergence: -0.21E-12 at (8,1,32)
       Max VN number:   0.27E-01 at (53,1,38)
       Mesh    4
       Max CFL number:  0.16E+00 at (1,1,13)
       Max divergence:  0.11E-12 at (75,1,8)
       Min divergence: -0.88E-13 at (7,1,10)
       Max VN number:   0.27E-01 at (7,1,28)
 
       Time Step    1000   October 17, 2022  21:19:30
       Step Size:    0.478E-03 s, Total Time:       0.82 s
       Pressure Iterations: 1
       Maximum Velocity Error:  0.22E-03 on Mesh 2 at (75,1,24)
       Maximum Pressure Error:  0.58E-09 on Mesh 2 at (26,1,27)
       ---------------------------------------------------------------
       Mesh    1
       Max CFL number:  0.27E+00 at (20,1,24)
       Max divergence:  0.18E-12 at (14,1,15)
       Min divergence: -0.22E-12 at (41,1,31)
       Max VN number:   0.27E-01 at (75,1,30)
       Mesh    2
       Max CFL number:  0.49E+00 at (25,1,15)
       Max divergence:  0.20E-12 at (37,1,10)
       Min divergence: -0.23E-12 at (25,1,26)
       Max VN number:   0.27E-01 at (23,1,37)
       Mesh    3
       Max CFL number:  0.23E+00 at (1,1,13)
       Max divergence:  0.17E-12 at (9,1,6)
       Min divergence: -0.20E-12 at (8,1,6)
       Max VN number:   0.27E-01 at (53,1,38)
       Mesh    4
       Max CFL number:  0.16E+00 at (1,1,14)
       Max divergence:  0.11E-12 at (8,1,11)
       Min divergence: -0.12E-12 at (38,1,8)
       Max VN number:   0.27E-01 at (7,1,28)
 
       Time Step    1100   October 17, 2022  21:19:31
       Step Size:    0.430E-03 s, Total Time:       0.87 s
       Pressure Iterations: 1
       Maximum Velocity Error:  0.37E-03 on Mesh 2 at (75,1,16)
       Maximum Pressure Error:  0.46E-09 on Mesh 2 at (27,1,15)
       ---------------------------------------------------------------
       Mesh    1
       Max CFL number:  0.25E+00 at (20,1,24)
       Max divergence:  0.19E-12 at (67,1,30)
       Min divergence: -0.20E-12 at (39,1,21)
       Max VN number:   0.24E-01 at (75,1,30)
       Mesh    2
       Max CFL number:  0.46E+00 at (25,1,15)
       Max divergence:  0.29E-12 at (65,1,36)
       Min divergence: -0.23E-12 at (61,1,9)
       Max VN number:   0.24E-01 at (23,1,37)
       Mesh    3
       Max CFL number:  0.24E+00 at (1,1,12)
       Max divergence:  0.20E-12 at (1,1,31)
       Min divergence: -0.23E-12 at (7,1,11)
       Max VN number:   0.24E-01 at (53,1,38)
       Mesh    4
       Max CFL number:  0.15E+00 at (1,1,14)
       Max divergence:  0.11E-12 at (75,1,25)
       Min divergence: -0.13E-12 at (6,1,32)
       Max VN number:   0.24E-01 at (3,1,31)
 
       Time Step    1200   October 17, 2022  21:19:33
       Step Size:    0.430E-03 s, Total Time:       0.91 s
       Pressure Iterations: 1
       Maximum Velocity Error:  0.39E-03 on Mesh 2 at (75,1,25)
       Maximum Pressure Error:  0.63E-09 on Mesh 2 at (27,1,15)
       ---------------------------------------------------------------
       Mesh    1
       Max CFL number:  0.26E+00 at (20,1,24)
       Max divergence:  0.20E-12 at (40,1,21)
       Min divergence: -0.24E-12 at (72,1,16)
       Max VN number:   0.24E-01 at (75,1,30)
       Mesh    2
       Max CFL number:  0.47E+00 at (25,1,15)
       Max divergence:  0.25E-12 at (63,1,34)
       Min divergence: -0.22E-12 at (26,1,11)
       Max VN number:   0.24E-01 at (23,1,37)
       Mesh    3
       Max CFL number:  0.26E+00 at (1,1,30)
       Max divergence:  0.23E-12 at (9,1,6)
       Min divergence: -0.27E-12 at (8,1,6)
       Max VN number:   0.24E-01 at (53,1,38)
       Mesh    4
       Max CFL number:  0.16E+00 at (1,1,14)
       Max divergence:  0.12E-12 at (75,1,17)
       Min divergence: -0.11E-12 at (6,1,32)
       Max VN number:   0.24E-01 at (7,1,28)
 
       Time Step    1300   October 17, 2022  21:19:34
       Step Size:    0.430E-03 s, Total Time:       0.95 s
       Pressure Iterations: 1
       Maximum Velocity Error:  0.48E-03 on Mesh 2 at (75,1,28)
       Maximum Pressure Error:  0.58E-09 on Mesh 2 at (27,1,15)
       ---------------------------------------------------------------
       Mesh    1
       Max CFL number:  0.27E+00 at (20,1,24)
       Max divergence:  0.22E-12 at (45,1,29)
       Min divergence: -0.24E-12 at (44,1,29)
       Max VN number:   0.24E-01 at (75,1,30)
       Mesh    2
       Max CFL number:  0.48E+00 at (25,1,15)
       Max divergence:  0.27E-12 at (72,1,1)
       Min divergence: -0.24E-12 at (58,1,9)
       Max VN number:   0.24E-01 at (23,1,37)
       Mesh    3
       Max CFL number:  0.29E+00 at (1,1,31)
       Max divergence:  0.19E-12 at (10,1,29)
       Min divergence: -0.26E-12 at (9,1,38)
       Max VN number:   0.24E-01 at (53,1,38)
       Mesh    4
       Max CFL number:  0.16E+00 at (1,1,14)
       Max divergence:  0.11E-12 at (75,1,30)
       Min divergence: -0.11E-12 at (6,1,32)
       Max VN number:   0.24E-01 at (7,1,28)
 
       Time Step    1400   October 17, 2022  21:19:35
       Step Size:    0.430E-03 s, Total Time:       0.99 s
       Pressure Iterations: 2
       Maximum Velocity Error:  0.39E-03 on Mesh 2 at (75,1,14)
       Maximum Pressure Error:  0.66E-09 on Mesh 2 at (26,1,27)
       ---------------------------------------------------------------
       Mesh    1
       Max CFL number:  0.27E+00 at (20,1,24)
       Max divergence:  0.18E-12 at (42,1,31)
       Min divergence: -0.20E-12 at (70,1,4)
       Max VN number:   0.24E-01 at (75,1,30)
       Mesh    2
       Max CFL number:  0.50E+00 at (25,1,15)
       Max divergence:  0.22E-12 at (67,1,35)
       Min divergence: -0.21E-12 at (61,1,9)
       Max VN number:   0.24E-01 at (23,1,37)
       Mesh    3
       Max CFL number:  0.34E+00 at (1,1,10)
       Max divergence:  0.26E-12 at (1,1,8)
       Min divergence: -0.30E-12 at (8,1,8)
       Max VN number:   0.24E-01 at (53,1,38)
       Mesh    4
       Max CFL number:  0.17E+00 at (1,1,14)
       Max divergence:  0.11E-12 at (37,1,8)
       Min divergence: -0.11E-12 at (11,1,10)
       Max VN number:   0.24E-01 at (7,1,28)
 
       Time Step    1500   October 17, 2022  21:19:36
       Step Size:    0.387E-03 s, Total Time:       1.03 s
       Pressure Iterations: 2
       Maximum Velocity Error:  0.23E-03 on Mesh 2 at (75,1,17)
       Maximum Pressure Error:  0.57E-09 on Mesh 2 at (25,1,26)
       ---------------------------------------------------------------
       Mesh    1
       Max CFL number:  0.25E+00 at (20,1,24)
       Max divergence:  0.20E-12 at (66,1,21)
       Min divergence: -0.23E-12 at (20,1,37)
       Max VN number:   0.22E-01 at (75,1,30)
       Mesh    2
       Max CFL number:  0.46E+00 at (25,1,15)
       Max divergence:  0.26E-12 at (57,1,8)
       Min divergence: -0.24E-12 at (64,1,34)
       Max VN number:   0.22E-01 at (23,1,37)
       Mesh    3
       Max CFL number:  0.32E+00 at (10,1,10)
       Max divergence:  0.25E-12 at (3,1,5)
       Min divergence: -0.44E-12 at (12,1,8)
       Max VN number:   0.22E-01 at (53,1,38)
       Mesh    4
       Max CFL number:  0.16E+00 at (1,1,31)
       Max divergence:  0.10E-12 at (8,1,11)
       Min divergence: -0.12E-12 at (6,1,32)
       Max VN number:   0.22E-01 at (3,1,31)
 
       Time Step    1600   October 17, 2022  21:19:38
       Step Size:    0.387E-03 s, Total Time:       1.07 s
       Pressure Iterations: 2
       Maximum Velocity Error:  0.28E-03 on Mesh 2 at (75,1,19)
       Maximum Pressure Error:  0.78E-09 on Mesh 2 at (26,1,27)
       ---------------------------------------------------------------
       Mesh    1
       Max CFL number:  0.26E+00 at (20,1,24)
       Max divergence:  0.19E-12 at (43,1,17)
       Min divergence: -0.24E-12 at (41,1,31)
       Max VN number:   0.22E-01 at (75,1,30)
       Mesh    2
       Max CFL number:  0.46E+00 at (25,1,26)
       Max divergence:  0.23E-12 at (65,1,36)
       Min divergence: -0.24E-12 at (55,1,9)
       Max VN number:   0.22E-01 at (23,1,37)
       Mesh    3
       Max CFL number:  0.35E+00 at (4,1,31)
       Max divergence:  0.33E-12 at (1,1,36)
       Min divergence: -0.26E-12 at (12,1,3)
       Max VN number:   0.22E-01 at (53,1,38)
       Mesh    4
       Max CFL number:  0.17E+00 at (1,1,16)
       Max divergence:  0.11E-12 at (75,1,18)
       Min divergence: -0.10E-12 at (11,1,10)
       Max VN number:   0.22E-01 at (3,1,31)
 
       Time Step    1700   October 17, 2022  21:19:39
       Step Size:    0.387E-03 s, Total Time:       1.11 s
       Pressure Iterations: 2
       Maximum Velocity Error:  0.49E-03 on Mesh 2 at (75,1,35)
       Maximum Pressure Error:  0.86E-09 on Mesh 2 at (27,1,15)
       ---------------------------------------------------------------
       Mesh    1
       Max CFL number:  0.26E+00 at (20,1,24)
       Max divergence:  0.21E-12 at (43,1,17)
       Min divergence: -0.24E-12 at (20,1,17)
       Max VN number:   0.22E-01 at (75,1,30)
       Mesh    2
       Max CFL number:  0.48E+00 at (25,1,15)
       Max divergence:  0.27E-12 at (72,1,1)
       Min divergence: -0.25E-12 at (67,1,9)
       Max VN number:   0.22E-01 at (23,1,37)
       Mesh    3
       Max CFL number:  0.37E+00 at (16,1,33)
       Max divergence:  0.23E-12 at (53,1,37)
       Min divergence: -0.33E-12 at (18,1,38)
       Max VN number:   0.22E-01 at (53,1,38)
       Mesh    4
       Max CFL number:  0.18E+00 at (3,1,11)
       Max divergence:  0.13E-12 at (75,1,8)
       Min divergence: -0.12E-12 at (7,1,10)
       Max VN number:   0.22E-01 at (3,1,31)
 
       Time Step    1800   October 17, 2022  21:19:40
       Step Size:    0.348E-03 s, Total Time:       1.15 s
       Pressure Iterations: 3
       Maximum Velocity Error:  0.45E-03 on Mesh 2 at (75,1,18)
       Maximum Pressure Error:  0.78E-09 on Mesh 2 at (27,1,15)
       ---------------------------------------------------------------
       Mesh    1
       Max CFL number:  0.24E+00 at (20,1,24)
       Max divergence:  0.20E-12 at (40,1,21)
       Min divergence: -0.23E-12 at (39,1,21)
       Max VN number:   0.20E-01 at (75,1,30)
       Mesh    2
       Max CFL number:  0.45E+00 at (25,1,15)
       Max divergence:  0.28E-12 at (74,1,3)
       Min divergence: -0.25E-12 at (72,1,18)
       Max VN number:   0.20E-01 at (23,1,37)
       Mesh    3
       Max CFL number:  0.36E+00 at (31,1,37)
       Max divergence:  0.27E-12 at (3,1,8)
       Min divergence: -0.42E-12 at (31,1,35)
       Max VN number:   0.20E-01 at (66,1,37)
       Mesh    4
       Max CFL number:  0.20E+00 at (1,1,34)
       Max divergence:  0.13E-12 at (75,1,12)
       Min divergence: -0.13E-12 at (5,1,27)
       Max VN number:   0.20E-01 at (3,1,31)
 
       Time Step    1900   October 17, 2022  21:19:42
       Step Size:    0.348E-03 s, Total Time:       1.18 s
       Pressure Iterations: 3
       Maximum Velocity Error:  0.45E-03 on Mesh 2 at (75,1,40)
       Maximum Pressure Error:  0.86E-09 on Mesh 2 at (25,1,26)
       ---------------------------------------------------------------
       Mesh    1
       Max CFL number:  0.24E+00 at (20,1,24)
       Max divergence:  0.22E-12 at (45,1,29)
       Min divergence: -0.23E-12 at (41,1,31)
       Max VN number:   0.20E-01 at (75,1,30)
       Mesh    2
       Max CFL number:  0.47E+00 at (25,1,26)
       Max divergence:  0.28E-12 at (65,1,36)
       Min divergence: -0.28E-12 at (25,1,26)
       Max VN number:   0.20E-01 at (23,1,37)
       Mesh    3
       Max CFL number:  0.37E+00 at (13,1,8)
       Max divergence:  0.33E-12 at (2,1,30)
       Min divergence: -0.22E-12 at (47,1,35)
       Max VN number:   0.20E-01 at (66,1,37)
       Mesh    4
       Max CFL number:  0.25E+00 at (1,1,4)
       Max divergence:  0.12E-12 at (75,1,2)
       Min divergence: -0.11E-12 at (3,1,35)
       Max VN number:   0.20E-01 at (3,1,31)
 
       Time Step    2000   October 17, 2022  21:19:43
       Step Size:    0.313E-03 s, Total Time:       1.22 s
       Pressure Iterations: 2
       Maximum Velocity Error:  0.41E-03 on Mesh 2 at (75,1,30)
       Maximum Pressure Error:  0.11E-08 on Mesh 2 at (27,1,15)
       ---------------------------------------------------------------
       Mesh    1
       Max CFL number:  0.22E+00 at (20,1,24)
       Max divergence:  0.21E-12 at (67,1,17)
       Min divergence: -0.26E-12 at (20,1,21)
       Max VN number:   0.18E-01 at (75,1,30)
       Mesh    2
       Max CFL number:  0.45E+00 at (25,1,15)
       Max divergence:  0.31E-12 at (58,1,11)
       Min divergence: -0.25E-12 at (64,1,9)
       Max VN number:   0.18E-01 at (23,1,37)
       Mesh    3
       Max CFL number:  0.34E+00 at (28,1,8)
       Max divergence:  0.33E-12 at (46,1,6)
       Min divergence: -0.36E-12 at (45,1,5)
       Max VN number:   0.18E-01 at (68,1,34)
       Mesh    4
       Max CFL number:  0.28E+00 at (1,1,3)
       Max divergence:  0.14E-12 at (10,1,10)
       Min divergence: -0.11E-12 at (11,1,10)
       Max VN number:   0.18E-01 at (3,1,31)
 
       Time Step    2100   October 17, 2022  21:19:45
       Step Size:    0.313E-03 s, Total Time:       1.25 s
       Pressure Iterations: 2
       Maximum Velocity Error:  0.45E-03 on Mesh 3 at (75,1,40)
       Maximum Pressure Error:  0.88E-09 on Mesh 2 at (26,1,27)
       ---------------------------------------------------------------
       Mesh    1
       Max CFL number:  0.22E+00 at (20,1,24)
       Max divergence:  0.22E-12 at (45,1,29)
       Min divergence: -0.26E-12 at (20,1,21)
       Max VN number:   0.18E-01 at (75,1,30)
       Mesh    2
       Max CFL number:  0.43E+00 at (25,1,15)
       Max divergence:  0.33E-12 at (74,1,3)
       Min divergence: -0.28E-12 at (25,1,26)
       Max VN number:   0.18E-01 at (23,1,37)
       Mesh    3
       Max CFL number:  0.33E+00 at (52,1,7)
       Max divergence:  0.31E-12 at (64,1,35)
       Min divergence: -0.42E-12 at (55,1,8)
       Max VN number:   0.18E-01 at (68,1,34)
       Mesh    4
       Max CFL number:  0.32E+00 at (2,1,37)
       Max divergence:  0.15E-12 at (26,1,10)
       Min divergence: -0.18E-12 at (1,1,35)
       Max VN number:   0.18E-01 at (7,1,28)
 
       Time Step    2200   October 17, 2022  21:19:46
       Step Size:    0.313E-03 s, Total Time:       1.28 s
       Pressure Iterations: 2
       Maximum Velocity Error:  0.46E-03 on Mesh 3 at (75,1,40)
       Maximum Pressure Error:  0.11E-08 on Mesh 2 at (27,1,15)
       ---------------------------------------------------------------
       Mesh    1
       Max CFL number:  0.23E+00 at (20,1,24)
       Max divergence:  0.23E-12 at (43,1,17)
       Min divergence: -0.25E-12 at (20,1,21)
       Max VN number:   0.18E-01 at (75,1,30)
       Mesh    2
       Max CFL number:  0.46E+00 at (25,1,26)
       Max divergence:  0.25E-12 at (67,1,35)
       Min divergence: -0.25E-12 at (43,1,21)
       Max VN number:   0.18E-01 at (23,1,37)
       Mesh    3
       Max CFL number:  0.33E+00 at (67,1,7)
       Max divergence:  0.25E-12 at (56,1,8)
       Min divergence: -0.35E-12 at (63,1,7)
       Max VN number:   0.18E-01 at (68,1,34)
       Mesh    4
       Max CFL number:  0.33E+00 at (17,1,38)
       Max divergence:  0.22E-12 at (3,1,35)
       Min divergence: -0.21E-12 at (13,1,36)
       Max VN number:   0.18E-01 at (7,1,28)
 
       Time Step    2300   October 17, 2022  21:19:47
       Step Size:    0.313E-03 s, Total Time:       1.31 s
       Pressure Iterations: 3
       Maximum Velocity Error:  0.44E-03 on Mesh 2 at (75,1,37)
       Maximum Pressure Error:  0.10E-08 on Mesh 2 at (37,1,19)
       ---------------------------------------------------------------
       Mesh    1
       Max CFL number:  0.23E+00 at (20,1,24)
       Max divergence:  0.20E-12 at (66,1,21)
       Min divergence: -0.23E-12 at (41,1,31)
       Max VN number:   0.18E-01 at (75,1,30)
       Mesh    2
       Max CFL number:  0.49E+00 at (25,1,15)
       Max divergence:  0.27E-12 at (56,1,10)
       Min divergence: -0.22E-12 at (58,1,8)
       Max VN number:   0.18E-01 at (23,1,37)
       Mesh    3
       Max CFL number:  0.32E+00 at (31,1,11)
       Max divergence:  0.33E-12 at (14,1,26)
       Min divergence: -0.36E-12 at (55,1,34)
       Max VN number:   0.18E-01 at (68,1,34)
       Mesh    4
       Max CFL number:  0.33E+00 at (29,1,40)
       Max divergence:  0.30E-12 at (6,1,10)
       Min divergence: -0.41E-12 at (5,1,6)
       Max VN number:   0.18E-01 at (3,1,31)
 
       Time Step    2400   October 17, 2022  21:19:49
       Step Size:    0.282E-03 s, Total Time:       1.34 s
       Pressure Iterations: 3
       Maximum Velocity Error:  0.38E-03 on Mesh 2 at (75,1,18)
       Maximum Pressure Error:  0.16E-08 on Mesh 2 at (37,1,22)
       ---------------------------------------------------------------
       Mesh    1
       Max CFL number:  0.21E+00 at (20,1,24)
       Max divergence:  0.24E-12 at (14,1,26)
       Min divergence: -0.26E-12 at (20,1,21)
       Max VN number:   0.16E-01 at (75,1,30)
       Mesh    2
       Max CFL number:  0.46E+00 at (25,1,26)
       Max divergence:  0.29E-12 at (37,1,22)
       Min divergence: -0.29E-12 at (46,1,19)
       Max VN number:   0.16E-01 at (37,1,22)
       Mesh    3
       Max CFL number:  0.30E+00 at (45,1,13)
       Max divergence:  0.28E-12 at (14,1,26)
       Min divergence: -0.42E-12 at (64,1,32)
       Max VN number:   0.16E-01 at (66,1,34)
       Mesh    4
       Max CFL number:  0.29E+00 at (46,1,40)
       Max divergence:  0.22E-12 at (75,1,39)
       Min divergence: -0.29E-12 at (48,1,38)
       Max VN number:   0.16E-01 at (7,1,28)
 
       Time Step    2500   October 17, 2022  21:19:50
       Step Size:    0.282E-03 s, Total Time:       1.37 s
       Pressure Iterations: 2
       Maximum Velocity Error:  0.39E-03 on Mesh 2 at (75,1,11)
       Maximum Pressure Error:  0.13E-08 on Mesh 2 at (37,1,25)
       ---------------------------------------------------------------
       Mesh    1
       Max CFL number:  0.21E+00 at (20,1,24)
       Max divergence:  0.23E-12 at (67,1,3)
       Min divergence: -0.25E-12 at (41,1,31)
       Max VN number:   0.16E-01 at (75,1,30)
       Mesh    2
       Max CFL number:  0.46E+00 at (25,1,15)
       Max divergence:  0.28E-12 at (62,1,30)
       Min divergence: -0.20E-12 at (21,1,39)
       Max VN number:   0.16E-01 at (23,1,37)
       Mesh    3
       Max CFL number:  0.30E+00 at (6,1,10)
       Max divergence:  0.28E-12 at (71,1,33)
       Min divergence: -0.39E-12 at (15,1,13)
       Max VN number:   0.16E-01 at (68,1,34)
       Mesh    4
       Max CFL number:  0.30E+00 at (61,1,40)
       Max divergence:  0.26E-12 at (75,1,37)
       Min divergence: -0.33E-12 at (6,1,35)
       Max VN number:   0.16E-01 at (7,1,28)
 
       Time Step    2600   October 17, 2022  21:19:51
       Step Size:    0.282E-03 s, Total Time:       1.40 s
       Pressure Iterations: 3
       Maximum Velocity Error:  0.37E-03 on Mesh 2 at (75,1,26)
       Maximum Pressure Error:  0.17E-08 on Mesh 2 at (37,1,22)
       ---------------------------------------------------------------
       Mesh    1
       Max CFL number:  0.21E+00 at (20,1,24)
       Max divergence:  0.24E-12 at (41,1,15)
       Min divergence: -0.25E-12 at (20,1,17)
       Max VN number:   0.16E-01 at (75,1,30)
       Mesh    2
       Max CFL number:  0.47E+00 at (25,1,15)
       Max divergence:  0.54E-12 at (37,1,19)
       Min divergence: -0.28E-12 at (58,1,9)
       Max VN number:   0.16E-01 at (37,1,20)
       Mesh    3
       Max CFL number:  0.30E+00 at (27,1,11)
       Max divergence:  0.28E-12 at (57,1,8)
       Min divergence: -0.31E-12 at (21,1,12)
       Max VN number:   0.16E-01 at (68,1,34)
       Mesh    4
       Max CFL number:  0.30E+00 at (39,1,5)
       Max divergence:  0.23E-12 at (3,1,31)
       Min divergence: -0.20E-12 at (6,1,32)
       Max VN number:   0.16E-01 at (3,1,31)
 
       Time Step    2700   October 17, 2022  21:19:53
       Step Size:    0.253E-03 s, Total Time:       1.42 s
       Pressure Iterations: 2
       Maximum Velocity Error:  0.49E-03 on Mesh 2 at (75,1,16)
       Maximum Pressure Error:  0.15E-08 on Mesh 2 at (37,1,17)
       ---------------------------------------------------------------
       Mesh    1
       Max CFL number:  0.19E+00 at (20,1,24)
       Max divergence:  0.22E-12 at (67,1,30)
       Min divergence: -0.26E-12 at (39,1,21)
       Max VN number:   0.14E-01 at (75,1,30)
       Mesh    2
       Max CFL number:  0.47E+00 at (25,1,26)
       Max divergence:  0.34E-12 at (28,1,27)
       Min divergence: -0.47E-12 at (46,1,19)
       Max VN number:   0.14E-01 at (23,1,37)
       Mesh    3
       Max CFL number:  0.27E+00 at (39,1,13)
       Max divergence:  0.28E-12 at (41,1,8)
       Min divergence: -0.22E-12 at (40,1,8)
       Max VN number:   0.14E-01 at (68,1,34)
       Mesh    4
       Max CFL number:  0.27E+00 at (62,1,5)
       Max divergence:  0.21E-12 at (75,1,8)
       Min divergence: -0.28E-12 at (11,1,7)
       Max VN number:   0.14E-01 at (3,1,31)
 
       Time Step    2800   October 17, 2022  21:19:54
       Step Size:    0.253E-03 s, Total Time:       1.45 s
       Pressure Iterations: 2
       Maximum Velocity Error:  0.41E-03 on Mesh 2 at (75,1,8)
       Maximum Pressure Error:  0.14E-08 on Mesh 2 at (37,1,26)
       ---------------------------------------------------------------
       Mesh    1
       Max CFL number:  0.19E+00 at (20,1,24)
       Max divergence:  0.24E-12 at (40,1,21)
       Min divergence: -0.24E-12 at (72,1,18)
       Max VN number:   0.14E-01 at (75,1,30)
       Mesh    2
       Max CFL number:  0.44E+00 at (25,1,15)
       Max divergence:  0.41E-12 at (37,1,23)
       Min divergence: -0.23E-12 at (40,1,10)
       Max VN number:   0.14E-01 at (23,1,37)
       Mesh    3
       Max CFL number:  0.27E+00 at (11,1,10)
       Max divergence:  0.32E-12 at (2,1,7)
       Min divergence: -0.39E-12 at (16,1,13)
       Max VN number:   0.14E-01 at (68,1,34)
       Mesh    4
       Max CFL number:  0.27E+00 at (75,1,3)
       Max divergence:  0.28E-12 at (75,1,5)
       Min divergence: -0.21E-12 at (44,1,36)
       Max VN number:   0.14E-01 at (3,1,31)
 
       Time Step    2900   October 17, 2022  21:19:56
       Step Size:    0.253E-03 s, Total Time:       1.48 s
       Pressure Iterations: 3
       Maximum Velocity Error:  0.38E-03 on Mesh 2 at (75,1,26)
       Maximum Pressure Error:  0.17E-08 on Mesh 2 at (27,1,15)
       ---------------------------------------------------------------
       Mesh    1
       Max CFL number:  0.19E+00 at (20,1,24)
       Max divergence:  0.23E-12 at (66,1,22)
       Min divergence: -0.28E-12 at (39,1,21)
       Max VN number:   0.14E-01 at (75,1,30)
       Mesh    2
       Max CFL number:  0.46E+00 at (25,1,15)
       Max divergence:  0.35E-12 at (56,1,10)
       Min divergence: -0.31E-12 at (30,1,15)
       Max VN number:   0.14E-01 at (23,1,37)
       Mesh    3
       Max CFL number:  0.28E+00 at (22,1,11)
       Max divergence:  0.30E-12 at (20,1,11)
       Min divergence: -0.39E-12 at (19,1,13)
       Max VN number:   0.14E-01 at (68,1,34)
       Mesh    4
       Max CFL number:  0.26E+00 at (55,1,35)
       Max divergence:  0.20E-12 at (75,1,5)
       Min divergence: -0.20E-12 at (31,1,3)
       Max VN number:   0.14E-01 at (3,1,31)
 
       Time Step    3000   October 17, 2022  21:19:57
       Step Size:    0.253E-03 s, Total Time:       1.50 s
       Pressure Iterations: 1
       Maximum Velocity Error:  0.45E-03 on Mesh 2 at (75,1,9)
       Maximum Pressure Error:  0.15E-08 on Mesh 2 at (28,1,24)
       ---------------------------------------------------------------
       Mesh    1
       Max CFL number:  0.19E+00 at (20,1,24)
       Max divergence:  0.22E-12 at (66,1,22)
       Min divergence: -0.26E-12 at (73,1,35)
       Max VN number:   0.14E-01 at (75,1,30)
       Mesh    2
       Max CFL number:  0.48E+00 at (25,1,26)
       Max divergence:  0.38E-12 at (28,1,27)
       Min divergence: -0.28E-12 at (45,1,26)
       Max VN number:   0.14E-01 at (23,1,37)
       Mesh    3
       Max CFL number:  0.27E+00 at (14,1,32)
       Max divergence:  0.33E-12 at (61,1,16)
       Min divergence: -0.26E-12 at (42,1,33)
       Max VN number:   0.14E-01 at (68,1,34)
       Mesh    4
       Max CFL number:  0.26E+00 at (68,1,37)
       Max divergence:  0.25E-12 at (6,1,28)
       Min divergence: -0.22E-12 at (38,1,8)
       Max VN number:   0.14E-01 at (7,1,28)
 
       Time Step    3100   October 17, 2022  21:19:58
       Step Size:    0.253E-03 s, Total Time:       1.53 s
       Pressure Iterations: 3
       Maximum Velocity Error:  0.39E-03 on Mesh 2 at (75,1,16)
       Maximum Pressure Error:  0.15E-08 on Mesh 2 at (27,1,15)
       ---------------------------------------------------------------
       Mesh    1
       Max CFL number:  0.19E+00 at (20,1,24)
       Max divergence:  0.24E-12 at (41,1,15)
       Min divergence: -0.29E-12 at (40,1,15)
       Max VN number:   0.14E-01 at (75,1,30)
       Mesh    2
       Max CFL number:  0.43E+00 at (25,1,26)
       Max divergence:  0.31E-12 at (37,1,24)
       Min divergence: -0.28E-12 at (57,1,29)
       Max VN number:   0.14E-01 at (23,1,37)
       Mesh    3
       Max CFL number:  0.31E+00 at (6,1,11)
       Max divergence:  0.29E-12 at (3,1,10)
       Min divergence: -0.37E-12 at (9,1,15)
       Max VN number:   0.14E-01 at (68,1,34)
       Mesh    4
       Max CFL number:  0.27E+00 at (75,1,38)
       Max divergence:  0.28E-12 at (37,1,8)
       Min divergence: -0.25E-12 at (38,1,8)
       Max VN number:   0.14E-01 at (3,1,31)
 
       Time Step    3200   October 17, 2022  21:20:00
       Step Size:    0.253E-03 s, Total Time:       1.55 s
       Pressure Iterations: 2
       Maximum Velocity Error:  0.38E-03 on Mesh 2 at (75,1,25)
       Maximum Pressure Error:  0.29E-08 on Mesh 2 at (37,1,24)
       ---------------------------------------------------------------
       Mesh    1
       Max CFL number:  0.20E+00 at (20,1,24)
       Max divergence:  0.21E-12 at (14,1,26)
       Min divergence: -0.26E-12 at (20,1,17)
       Max VN number:   0.14E-01 at (75,1,30)
       Mesh    2
       Max CFL number:  0.50E+00 at (25,1,15)
       Max divergence:  0.33E-12 at (45,1,23)
       Min divergence: -0.45E-12 at (37,1,24)
       Max VN number:   0.14E-01 at (23,1,37)
       Mesh    3
       Max CFL number:  0.29E+00 at (17,1,12)
       Max divergence:  0.25E-12 at (2,1,33)
       Min divergence: -0.39E-12 at (18,1,14)
       Max VN number:   0.14E-01 at (68,1,34)
       Mesh    4
       Max CFL number:  0.26E+00 at (51,1,10)
       Max divergence:  0.24E-12 at (8,1,11)
       Min divergence: -0.18E-12 at (15,1,6)
       Max VN number:   0.14E-01 at (3,1,31)
 
       Time Step    3300   October 17, 2022  21:20:01
       Step Size:    0.253E-03 s, Total Time:       1.58 s
       Pressure Iterations: 3
       Maximum Velocity Error:  0.36E-03 on Mesh 2 at (75,1,26)
       Maximum Pressure Error:  0.21E-08 on Mesh 2 at (37,1,15)
       ---------------------------------------------------------------
       Mesh    1
       Max CFL number:  0.20E+00 at (20,1,24)
       Max divergence:  0.22E-12 at (66,1,22)
       Min divergence: -0.25E-12 at (72,1,18)
       Max VN number:   0.14E-01 at (75,1,30)
       Mesh    2
       Max CFL number:  0.44E+00 at (25,1,26)
       Max divergence:  0.36E-12 at (37,1,15)
       Min divergence: -0.27E-12 at (39,1,12)
       Max VN number:   0.14E-01 at (23,1,37)
       Mesh    3
       Max CFL number:  0.30E+00 at (8,1,31)
       Max divergence:  0.33E-12 at (14,1,26)
       Min divergence: -0.42E-12 at (22,1,12)
       Max VN number:   0.14E-01 at (68,1,34)
       Mesh    4
       Max CFL number:  0.26E+00 at (63,1,9)
       Max divergence:  0.22E-12 at (6,1,28)
       Min divergence: -0.23E-12 at (44,1,36)
       Max VN number:   0.14E-01 at (7,1,28)
 
       Time Step    3400   October 17, 2022  21:20:02
       Step Size:    0.253E-03 s, Total Time:       1.60 s
       Pressure Iterations: 4
       Maximum Velocity Error:  0.37E-03 on Mesh 2 at (75,1,16)
       Maximum Pressure Error:  0.30E-08 on Mesh 2 at (73,1,16)
       ---------------------------------------------------------------
       Mesh    1
       Max CFL number:  0.20E+00 at (20,1,24)
       Max divergence:  0.21E-12 at (66,1,21)
       Min divergence: -0.28E-12 at (20,1,17)
       Max VN number:   0.14E-01 at (75,1,30)
       Mesh    2
       Max CFL number:  0.47E+00 at (25,1,26)
       Max divergence:  0.38E-12 at (37,1,23)
       Min divergence: -0.48E-12 at (73,1,16)
       Max VN number:   0.14E-01 at (23,1,37)
       Mesh    3
       Max CFL number:  0.32E+00 at (2,1,12)
       Max divergence:  0.33E-12 at (2,1,11)
       Min divergence: -0.33E-12 at (20,1,27)
       Max VN number:   0.14E-01 at (68,1,34)
       Mesh    4
       Max CFL number:  0.26E+00 at (75,1,6)
       Max divergence:  0.26E-12 at (75,1,1)
       Min divergence: -0.21E-12 at (31,1,3)
       Max VN number:   0.14E-01 at (3,1,31)
 
       Time Step    3500   October 17, 2022  21:20:04
       Step Size:    0.253E-03 s, Total Time:       1.63 s
       Pressure Iterations: 2
       Maximum Velocity Error:  0.45E-03 on Mesh 3 at (75,1,19)
       Maximum Pressure Error:  0.15E-08 on Mesh 2 at (27,1,15)
       ---------------------------------------------------------------
       Mesh    1
       Max CFL number:  0.20E+00 at (20,1,24)
       Max divergence:  0.26E-12 at (43,1,17)
       Min divergence: -0.29E-12 at (41,1,31)
       Max VN number:   0.14E-01 at (75,1,30)
       Mesh    2
       Max CFL number:  0.49E+00 at (25,1,15)
       Max divergence:  0.34E-12 at (37,1,23)
       Min divergence: -0.25E-12 at (54,1,18)
       Max VN number:   0.14E-01 at (23,1,37)
       Mesh    3
       Max CFL number:  0.31E+00 at (5,1,12)
       Max divergence:  0.31E-12 at (16,1,15)
       Min divergence: -0.37E-12 at (40,1,9)
       Max VN number:   0.14E-01 at (68,1,34)
       Mesh    4
       Max CFL number:  0.26E+00 at (9,1,13)
       Max divergence:  0.24E-12 at (8,1,11)
       Min divergence: -0.18E-12 at (11,1,7)
       Max VN number:   0.14E-01 at (3,1,31)
 
       Time Step    3600   October 17, 2022  21:20:05
       Step Size:    0.228E-03 s, Total Time:       1.65 s
       Pressure Iterations: 3
       Maximum Velocity Error:  0.36E-03 on Mesh 2 at (75,1,26)
       Maximum Pressure Error:  0.15E-08 on Mesh 2 at (72,1,27)
       ---------------------------------------------------------------
       Mesh    1
       Max CFL number:  0.18E+00 at (20,1,24)
       Max divergence:  0.27E-12 at (67,1,30)
       Min divergence: -0.29E-12 at (20,1,17)
       Max VN number:   0.13E-01 at (75,1,30)
       Mesh    2
       Max CFL number:  0.41E+00 at (25,1,15)
       Max divergence:  0.43E-12 at (37,1,17)
       Min divergence: -0.37E-12 at (37,1,16)
       Max VN number:   0.13E-01 at (23,1,37)
       Mesh    3
       Max CFL number:  0.28E+00 at (3,1,30)
       Max divergence:  0.28E-12 at (4,1,31)
       Min divergence: -0.39E-12 at (64,1,32)
       Max VN number:   0.13E-01 at (68,1,34)
       Mesh    4
       Max CFL number:  0.23E+00 at (19,1,13)
       Max divergence:  0.23E-12 at (6,1,10)
       Min divergence: -0.26E-12 at (15,1,6)
       Max VN number:   0.13E-01 at (3,1,31)
 
       Time Step    3700   October 17, 2022  21:20:06
       Step Size:    0.250E-03 s, Total Time:       1.68 s
       Pressure Iterations: 2
       Maximum Velocity Error:  0.38E-03 on Mesh 3 at (75,1,27)
       Maximum Pressure Error:  0.35E-08 on Mesh 2 at (37,1,19)
       ---------------------------------------------------------------
       Mesh    1
       Max CFL number:  0.20E+00 at (20,1,24)
       Max divergence:  0.23E-12 at (43,1,17)
       Min divergence: -0.28E-12 at (44,1,29)
       Max VN number:   0.14E-01 at (75,1,30)
       Mesh    2
       Max CFL number:  0.50E+00 at (25,1,26)
       Max divergence:  0.33E-12 at (43,1,23)
       Min divergence: -0.40E-12 at (37,1,18)
       Max VN number:   0.14E-01 at (23,1,37)
       Mesh    3
       Max CFL number:  0.30E+00 at (23,1,12)
       Max divergence:  0.33E-12 at (14,1,26)
       Min divergence: -0.39E-12 at (14,1,27)
       Max VN number:   0.14E-01 at (68,1,34)
       Mesh    4
       Max CFL number:  0.25E+00 at (61,1,13)
       Max divergence:  0.20E-12 at (1,1,27)
       Min divergence: -0.22E-12 at (26,1,12)
       Max VN number:   0.14E-01 at (7,1,28)
 
       Time Step    3800   October 17, 2022  21:20:08
       Step Size:    0.250E-03 s, Total Time:       1.70 s
       Pressure Iterations: 4
       Maximum Velocity Error:  0.41E-03 on Mesh 2 at (75,1,17)
       Maximum Pressure Error:  0.17E-08 on Mesh 2 at (37,1,24)
       ---------------------------------------------------------------
       Mesh    1
       Max CFL number:  0.20E+00 at (20,1,24)
       Max divergence:  0.23E-12 at (14,1,26)
       Min divergence: -0.29E-12 at (41,1,31)
       Max VN number:   0.14E-01 at (75,1,30)
       Mesh    2
       Max CFL number:  0.43E+00 at (25,1,15)
       Max divergence:  0.59E-12 at (37,1,23)
       Min divergence: -0.27E-12 at (50,1,12)
       Max VN number:   0.14E-01 at (37,1,19)
       Mesh    3
       Max CFL number:  0.31E+00 at (1,1,13)
       Max divergence:  0.38E-12 at (60,1,32)
       Min divergence: -0.45E-12 at (40,1,9)
       Max VN number:   0.14E-01 at (68,1,34)
       Mesh    4
       Max CFL number:  0.27E+00 at (2,1,12)
       Max divergence:  0.25E-12 at (75,1,5)
       Min divergence: -0.26E-12 at (15,1,35)
       Max VN number:   0.14E-01 at (3,1,31)
 
       Time Step    3900   October 17, 2022  21:20:09
       Step Size:    0.225E-03 s, Total Time:       1.72 s
       Pressure Iterations: 2
       Maximum Velocity Error:  0.44E-03 on Mesh 2 at (75,1,25)
       Maximum Pressure Error:  0.29E-08 on Mesh 3 at (12,1,15)
       ---------------------------------------------------------------
       Mesh    1
       Max CFL number:  0.18E+00 at (20,1,24)
       Max divergence:  0.22E-12 at (67,1,17)
       Min divergence: -0.28E-12 at (44,1,29)
       Max VN number:   0.13E-01 at (75,1,30)
       Mesh    2
       Max CFL number:  0.45E+00 at (25,1,15)
       Max divergence:  0.31E-12 at (67,1,35)
       Min divergence: -0.37E-12 at (37,1,26)
       Max VN number:   0.13E-01 at (37,1,19)
       Mesh    3
       Max CFL number:  0.28E+00 at (9,1,12)
       Max divergence:  0.33E-12 at (16,1,15)
       Min divergence: -0.55E-12 at (65,1,34)
       Max VN number:   0.13E-01 at (71,1,33)
       Mesh    4
       Max CFL number:  0.25E+00 at (4,1,12)
       Max divergence:  0.22E-12 at (8,1,11)
       Min divergence: -0.25E-12 at (4,1,8)
       Max VN number:   0.13E-01 at (3,1,31)
 
       Time Step    4000   October 17, 2022  21:20:10
       Step Size:    0.248E-03 s, Total Time:       1.75 s
       Pressure Iterations: 3
       Maximum Velocity Error:  0.39E-03 on Mesh 2 at (75,1,25)
       Maximum Pressure Error:  0.18E-08 on Mesh 2 at (37,1,14)
       ---------------------------------------------------------------
       Mesh    1
       Max CFL number:  0.20E+00 at (20,1,24)
       Max divergence:  0.24E-12 at (43,1,17)
       Min divergence: -0.29E-12 at (40,1,15)
       Max VN number:   0.14E-01 at (75,1,30)
       Mesh    2
       Max CFL number:  0.47E+00 at (25,1,26)
       Max divergence:  0.33E-12 at (51,1,25)
       Min divergence: -0.34E-12 at (25,1,26)
       Max VN number:   0.14E-01 at (23,1,37)
       Mesh    3
       Max CFL number:  0.31E+00 at (26,1,12)
       Max divergence:  0.50E-12 at (25,1,13)
       Min divergence: -0.44E-12 at (24,1,13)
       Max VN number:   0.14E-01 at (68,1,34)
       Mesh    4
       Max CFL number:  0.27E+00 at (14,1,12)
       Max divergence:  0.28E-12 at (10,1,10)
       Min divergence: -0.26E-12 at (4,1,40)
       Max VN number:   0.14E-01 at (3,1,31)
 
       Time Step    4100   October 17, 2022  21:20:12
       Step Size:    0.248E-03 s, Total Time:       1.77 s
       Pressure Iterations: 3
       Maximum Velocity Error:  0.49E-03 on Mesh 2 at (75,1,17)
       Maximum Pressure Error:  0.24E-08 on Mesh 2 at (37,1,18)
       ---------------------------------------------------------------
       Mesh    1
       Max CFL number:  0.20E+00 at (20,1,24)
       Max divergence:  0.25E-12 at (66,1,22)
       Min divergence: -0.26E-12 at (40,1,15)
       Max VN number:   0.14E-01 at (75,1,30)
       Mesh    2
       Max CFL number:  0.46E+00 at (25,1,26)
       Max divergence:  0.48E-12 at (37,1,17)
       Min divergence: -0.38E-12 at (37,1,24)
       Max VN number:   0.14E-01 at (37,1,18)
       Mesh    3
       Max CFL number:  0.31E+00 at (3,1,12)
       Max divergence:  0.31E-12 at (2,1,15)
       Min divergence: -0.31E-12 at (7,1,24)
       Max VN number:   0.14E-01 at (68,1,34)
       Mesh    4
       Max CFL number:  0.27E+00 at (13,1,34)
       Max divergence:  0.28E-12 at (26,1,9)
       Min divergence: -0.23E-12 at (44,1,36)
       Max VN number:   0.14E-01 at (7,1,28)
 
       Time Step    4200   October 17, 2022  21:20:13
       Step Size:    0.223E-03 s, Total Time:       1.80 s
       Pressure Iterations: 2
       Maximum Velocity Error:  0.44E-03 on Mesh 3 at (75,1,17)
       Maximum Pressure Error:  0.20E-08 on Mesh 3 at (42,1,17)
       ---------------------------------------------------------------
       Mesh    1
       Max CFL number:  0.18E+00 at (20,1,24)
       Max divergence:  0.23E-12 at (43,1,17)
       Min divergence: -0.28E-12 at (20,1,23)
       Max VN number:   0.13E-01 at (75,1,30)
       Mesh    2
       Max CFL number:  0.45E+00 at (25,1,15)
       Max divergence:  0.33E-12 at (38,1,24)
       Min divergence: -0.25E-12 at (55,1,18)
       Max VN number:   0.13E-01 at (23,1,37)
       Mesh    3
       Max CFL number:  0.29E+00 at (5,1,13)
       Max divergence:  0.33E-12 at (66,1,34)
       Min divergence: -0.58E-12 at (65,1,34)
       Max VN number:   0.13E-01 at (68,1,34)
       Mesh    4
       Max CFL number:  0.26E+00 at (7,1,12)
       Max divergence:  0.31E-12 at (8,1,11)
       Min divergence: -0.24E-12 at (11,1,7)
       Max VN number:   0.13E-01 at (3,1,31)
 
       Time Step    4300   October 17, 2022  21:20:15
       Step Size:    0.223E-03 s, Total Time:       1.82 s
       Pressure Iterations: 2
       Maximum Velocity Error:  0.39E-03 on Mesh 2 at (75,1,26)
       Maximum Pressure Error:  0.16E-08 on Mesh 2 at (74,1,27)
       ---------------------------------------------------------------
       Mesh    1
       Max CFL number:  0.18E+00 at (20,1,24)
       Max divergence:  0.24E-12 at (14,1,26)
       Min divergence: -0.28E-12 at (44,1,29)
       Max VN number:   0.13E-01 at (75,1,30)
       Mesh    2
       Max CFL number:  0.40E+00 at (25,1,15)
       Max divergence:  0.33E-12 at (72,1,26)
       Min divergence: -0.28E-12 at (30,1,17)
       Max VN number:   0.13E-01 at (23,1,37)
       Mesh    3
       Max CFL number:  0.28E+00 at (21,1,12)
       Max divergence:  0.40E-12 at (22,1,15)
       Min divergence: -0.50E-12 at (73,1,34)
       Max VN number:   0.13E-01 at (66,1,33)
       Mesh    4
       Max CFL number:  0.26E+00 at (8,1,12)
       Max divergence:  0.24E-12 at (75,1,39)
       Min divergence: -0.23E-12 at (9,1,11)
       Max VN number:   0.13E-01 at (3,1,31)
 
       Time Step    4400   October 17, 2022  21:20:16
       Step Size:    0.245E-03 s, Total Time:       1.84 s
       Pressure Iterations: 3
       Maximum Velocity Error:  0.40E-03 on Mesh 3 at (75,1,28)
       Maximum Pressure Error:  0.35E-08 on Mesh 2 at (37,1,16)
       ---------------------------------------------------------------
       Mesh    1
       Max CFL number:  0.20E+00 at (20,1,24)
       Max divergence:  0.25E-12 at (40,1,21)
       Min divergence: -0.30E-12 at (41,1,31)
       Max VN number:   0.14E-01 at (75,1,30)
       Mesh    2
       Max CFL number:  0.50E+00 at (25,1,26)
       Max divergence:  0.31E-12 at (36,1,18)
       Min divergence: -0.30E-12 at (38,1,16)
       Max VN number:   0.14E-01 at (23,1,37)
       Mesh    3
       Max CFL number:  0.30E+00 at (23,1,13)
       Max divergence:  0.34E-12 at (25,1,14)
       Min divergence: -0.41E-12 at (25,1,13)
       Max VN number:   0.14E-01 at (71,1,33)
       Mesh    4
       Max CFL number:  0.28E+00 at (19,1,12)
       Max divergence:  0.25E-12 at (25,1,12)
       Min divergence: -0.25E-12 at (15,1,6)
       Max VN number:   0.14E-01 at (3,1,31)
 
       Time Step    4500   October 17, 2022  21:20:17
       Step Size:    0.245E-03 s, Total Time:       1.87 s
       Pressure Iterations: 4
       Maximum Velocity Error:  0.38E-03 on Mesh 2 at (75,1,18)
       Maximum Pressure Error:  0.16E-08 on Mesh 2 at (37,1,25)
       ---------------------------------------------------------------
       Mesh    1
       Max CFL number:  0.20E+00 at (20,1,24)
       Max divergence:  0.25E-12 at (42,1,31)
       Min divergence: -0.29E-12 at (41,1,31)
       Max VN number:   0.14E-01 at (75,1,30)
       Mesh    2
       Max CFL number:  0.45E+00 at (25,1,15)
       Max divergence:  0.44E-12 at (37,1,22)
       Min divergence: -0.31E-12 at (56,1,30)
       Max VN number:   0.14E-01 at (37,1,18)
       Mesh    3
       Max CFL number:  0.32E+00 at (1,1,13)
       Max divergence:  0.31E-12 at (66,1,11)
       Min divergence: -0.28E-12 at (46,1,9)
       Max VN number:   0.14E-01 at (71,1,33)
       Mesh    4
       Max CFL number:  0.29E+00 at (1,1,13)
       Max divergence:  0.28E-12 at (25,1,12)
       Min divergence: -0.33E-12 at (15,1,35)
       Max VN number:   0.14E-01 at (3,1,31)
 
       Time Step    4600   October 17, 2022  21:20:19
       Step Size:    0.220E-03 s, Total Time:       1.89 s
       Pressure Iterations: 3
       Maximum Velocity Error:  0.39E-03 on Mesh 2 at (75,1,26)
       Maximum Pressure Error:  0.21E-08 on Mesh 3 at (12,1,17)
       ---------------------------------------------------------------
       Mesh    1
       Max CFL number:  0.18E+00 at (20,1,24)
       Max divergence:  0.25E-12 at (41,1,15)
       Min divergence: -0.27E-12 at (72,1,20)
       Max VN number:   0.12E-01 at (75,1,30)
       Mesh    2
       Max CFL number:  0.44E+00 at (25,1,15)
       Max divergence:  0.36E-12 at (37,1,26)
       Min divergence: -0.45E-12 at (38,1,26)
       Max VN number:   0.12E-01 at (37,1,18)
       Mesh    3
       Max CFL number:  0.28E+00 at (16,1,13)
       Max divergence:  0.28E-12 at (16,1,15)
       Min divergence: -0.42E-12 at (47,1,9)
       Max VN number:   0.12E-01 at (47,1,27)
       Mesh    4
       Max CFL number:  0.26E+00 at (2,1,13)
       Max divergence:  0.24E-12 at (75,1,6)
       Min divergence: -0.25E-12 at (11,1,7)
       Max VN number:   0.12E-01 at (3,1,31)
 
       Time Step    4700   October 17, 2022  21:20:20
       Step Size:    0.242E-03 s, Total Time:       1.91 s
       Pressure Iterations: 3
       Maximum Velocity Error:  0.37E-03 on Mesh 3 at (75,1,28)
       Maximum Pressure Error:  0.19E-08 on Mesh 2 at (25,1,26)
       ---------------------------------------------------------------
       Mesh    1
       Max CFL number:  0.20E+00 at (20,1,24)
       Max divergence:  0.23E-12 at (45,1,29)
       Min divergence: -0.28E-12 at (41,1,31)
       Max VN number:   0.14E-01 at (75,1,30)
       Mesh    2
       Max CFL number:  0.48E+00 at (25,1,26)
       Max divergence:  0.36E-12 at (28,1,27)
       Min divergence: -0.34E-12 at (25,1,26)
       Max VN number:   0.14E-01 at (23,1,37)
       Mesh    3
       Max CFL number:  0.30E+00 at (19,1,13)
       Max divergence:  0.33E-12 at (53,1,14)
       Min divergence: -0.39E-12 at (25,1,13)
       Max VN number:   0.14E-01 at (71,1,33)
       Mesh    4
       Max CFL number:  0.28E+00 at (12,1,13)
       Max divergence:  0.27E-12 at (25,1,12)
       Min divergence: -0.28E-12 at (50,1,16)
       Max VN number:   0.14E-01 at (7,1,28)
 
       Time Step    4800   October 17, 2022  21:20:21
       Step Size:    0.242E-03 s, Total Time:       1.94 s
       Pressure Iterations: 3
       Maximum Velocity Error:  0.39E-03 on Mesh 2 at (75,1,18)
       Maximum Pressure Error:  0.18E-08 on Mesh 2 at (72,1,17)
       ---------------------------------------------------------------
       Mesh    1
       Max CFL number:  0.20E+00 at (20,1,24)
       Max divergence:  0.27E-12 at (41,1,15)
       Min divergence: -0.28E-12 at (44,1,29)
       Max VN number:   0.14E-01 at (75,1,30)
       Mesh    2
       Max CFL number:  0.45E+00 at (25,1,26)
       Max divergence:  0.33E-12 at (37,1,26)
       Min divergence: -0.34E-12 at (56,1,30)
       Max VN number:   0.14E-01 at (37,1,19)
       Mesh    3
       Max CFL number:  0.30E+00 at (3,1,12)
       Max divergence:  0.31E-12 at (3,1,10)
       Min divergence: -0.34E-12 at (18,1,27)
       Max VN number:   0.14E-01 at (71,1,33)
       Mesh    4
       Max CFL number:  0.28E+00 at (61,1,11)
       Max divergence:  0.28E-12 at (4,1,32)
       Min divergence: -0.28E-12 at (4,1,40)
       Max VN number:   0.14E-01 at (7,1,28)
 
       Time Step    4900   October 17, 2022  21:20:23
       Step Size:    0.218E-03 s, Total Time:       1.96 s
       Pressure Iterations: 1
       Maximum Velocity Error:  0.44E-03 on Mesh 2 at (75,1,11)
       Maximum Pressure Error:  0.18E-08 on Mesh 3 at (42,1,16)
       ---------------------------------------------------------------
       Mesh    1
       Max CFL number:  0.18E+00 at (20,1,24)
       Max divergence:  0.24E-12 at (41,1,15)
       Min divergence: -0.28E-12 at (20,1,23)
       Max VN number:   0.12E-01 at (75,1,30)
       Mesh    2
       Max CFL number:  0.45E+00 at (25,1,15)
       Max divergence:  0.33E-12 at (45,1,13)
       Min divergence: -0.28E-12 at (50,1,12)
       Max VN number:   0.12E-01 at (37,1,19)
       Mesh    3
       Max CFL number:  0.28E+00 at (5,1,13)
       Max divergence:  0.34E-12 at (16,1,15)
       Min divergence: -0.36E-12 at (47,1,9)
       Max VN number:   0.12E-01 at (71,1,33)
       Mesh    4
       Max CFL number:  0.26E+00 at (4,1,13)
       Max divergence:  0.27E-12 at (25,1,12)
       Min divergence: -0.28E-12 at (16,1,35)
       Max VN number:   0.12E-01 at (3,1,31)
 
       Time Step    5000   October 17, 2022  21:20:24
       Step Size:    0.240E-03 s, Total Time:       1.98 s
       Pressure Iterations: 2
       Maximum Velocity Error:  0.46E-03 on Mesh 3 at (75,1,11)
       Maximum Pressure Error:  0.21E-08 on Mesh 2 at (37,1,19)
       ---------------------------------------------------------------
       Mesh    1
       Max CFL number:  0.20E+00 at (20,1,24)
       Max divergence:  0.24E-12 at (66,1,21)
       Min divergence: -0.28E-12 at (41,1,31)
       Max VN number:   0.14E-01 at (75,1,30)
       Mesh    2
       Max CFL number:  0.43E+00 at (25,1,15)
       Max divergence:  0.34E-12 at (37,1,18)
       Min divergence: -0.30E-12 at (61,1,9)
       Max VN number:   0.14E-01 at (23,1,37)
       Mesh    3
       Max CFL number:  0.31E+00 at (21,1,12)
       Max divergence:  0.27E-12 at (11,1,19)
       Min divergence: -0.37E-12 at (47,1,9)
       Max VN number:   0.14E-01 at (66,1,33)
       Mesh    4
       Max CFL number:  0.28E+00 at (6,1,13)
       Max divergence:  0.27E-12 at (8,1,11)
       Min divergence: -0.27E-12 at (11,1,7)
       Max VN number:   0.14E-01 at (3,1,31)
 
       Time Step    5063   October 17, 2022  21:20:25
       Step Size:    0.241E-03 s, Total Time:       2.00 s
       Pressure Iterations: 2
       Maximum Velocity Error:  0.46E-03 on Mesh 3 at (75,1,28)
       Maximum Pressure Error:  0.24E-08 on Mesh 2 at (25,1,26)
       ---------------------------------------------------------------
       Mesh    1
       Max CFL number:  0.20E+00 at (20,1,24)
       Max divergence:  0.27E-12 at (40,1,21)
       Min divergence: -0.30E-12 at (41,1,31)
       Max VN number:   0.14E-01 at (75,1,30)
       Mesh    2
       Max CFL number:  0.49E+00 at (25,1,26)
       Max divergence:  0.33E-12 at (45,1,29)
       Min divergence: -0.33E-12 at (44,1,29)
       Max VN number:   0.14E-01 at (23,1,37)
       Mesh    3
       Max CFL number:  0.30E+00 at (20,1,13)
       Max divergence:  0.35E-12 at (25,1,14)
       Min divergence: -0.31E-12 at (26,1,14)
       Max VN number:   0.14E-01 at (71,1,33)
       Mesh    4
       Max CFL number:  0.28E+00 at (12,1,13)
       Max divergence:  0.35E-12 at (75,1,37)
       Min divergence: -0.23E-12 at (1,1,39)
       Max VN number:   0.14E-01 at (3,1,31)
 


 Time Stepping Wall Clock Time (s):       67.962
 Total Elapsed Wall Clock Time (s):       68.155

STOP: FDS completed successfully (CHID: dancing_eddies_default)
