
#======================================================================
# CRYSTAL DATA
#----------------------------------------------------------------------
data_VESTA_phase_1

_chemical_name_common                  'Ru4'
_cell_length_a                         7.582757
_cell_length_b                         7.582757
_cell_length_c                         17.582756
_cell_angle_alpha                      90.000000
_cell_angle_beta                       90.000000
_cell_angle_gamma                      90.000000
_cell_volume                           1010.976761
_space_group_name_H-M_alt              'P 1'
_space_group_IT_number                 1

loop_
_space_group_symop_operation_xyz
   'x, y, z'

loop_
   _atom_site_label
   _atom_site_occupancy
   _atom_site_fract_x
   _atom_site_fract_y
   _atom_site_fract_z
   _atom_site_adp_type
   _atom_site_U_iso_or_equiv
   _atom_site_type_symbol
   Ru1        1.0     0.000000     0.000000     0.000000    Uiso  ? Ru
   Ru2        1.0     0.000000     0.000000     0.431261    Uiso  ? Ru
   Ru3        1.0     0.000000     0.000000     0.215630    Uiso  ? Ru
   Ru4        1.0     0.000000     0.500000     0.000000    Uiso  ? Ru
   Ru5        1.0     0.000000     0.500000     0.431261    Uiso  ? Ru
   Ru6        1.0     0.000000     0.500000     0.215630    Uiso  ? Ru
   Ru7        1.0     0.500000     0.000000     0.000000    Uiso  ? Ru
   Ru8        1.0     0.500000     0.000000     0.431261    Uiso  ? Ru
   Ru9        1.0     0.500000     0.000000     0.215630    Uiso  ? Ru
   Ru10       1.0     0.500000     0.500000     0.000000    Uiso  ? Ru
   Ru11       1.0     0.500000     0.500000     0.431261    Uiso  ? Ru
   Ru12       1.0     0.500000     0.500000     0.215630    Uiso  ? Ru
   Ru13       1.0     0.000000     0.250000     0.107815    Uiso  ? Ru
   Ru14       1.0     0.000000     0.250000     0.323446    Uiso  ? Ru
   Ru15       1.0     0.000000     0.750000     0.107815    Uiso  ? Ru
   Ru16       1.0     0.000000     0.750000     0.323446    Uiso  ? Ru
   Ru17       1.0     0.500000     0.250000     0.107815    Uiso  ? Ru
   Ru18       1.0     0.500000     0.250000     0.323446    Uiso  ? Ru
   Ru19       1.0     0.500000     0.750000     0.107815    Uiso  ? Ru
   Ru20       1.0     0.500000     0.750000     0.323446    Uiso  ? Ru
   Ru21       1.0     0.250000     0.000000     0.107815    Uiso  ? Ru
   Ru22       1.0     0.250000     0.000000     0.323446    Uiso  ? Ru
   Ru23       1.0     0.250000     0.500000     0.107815    Uiso  ? Ru
   Ru24       1.0     0.250000     0.500000     0.323446    Uiso  ? Ru
   Ru25       1.0     0.750000     0.000000     0.107815    Uiso  ? Ru
   Ru26       1.0     0.750000     0.000000     0.323446    Uiso  ? Ru
   Ru27       1.0     0.750000     0.500000     0.107815    Uiso  ? Ru
   Ru28       1.0     0.750000     0.500000     0.323446    Uiso  ? Ru
   Ru29       1.0     0.250000     0.250000     0.000000    Uiso  ? Ru
   Ru30       1.0     0.250000     0.250000     0.431261    Uiso  ? Ru
   Ru31       1.0     0.250000     0.250000     0.215630    Uiso  ? Ru
   Ru32       1.0     0.250000     0.750000     0.000000    Uiso  ? Ru
   Ru33       1.0     0.250000     0.750000     0.431261    Uiso  ? Ru
   Ru34       1.0     0.250000     0.750000     0.215630    Uiso  ? Ru
   Ru35       1.0     0.750000     0.250000     0.000000    Uiso  ? Ru
   Ru36       1.0     0.750000     0.250000     0.431261    Uiso  ? Ru
   Ru37       1.0     0.750000     0.250000     0.215630    Uiso  ? Ru
   Ru38       1.0     0.750000     0.750000     0.000000    Uiso  ? Ru
   Ru39       1.0     0.750000     0.750000     0.431261    Uiso  ? Ru
   Ru40       1.0     0.750000     0.750000     0.215630    Uiso  ? Ru
