
 Fire Dynamics Simulator

 Current Date     : January 28, 2023  20:09:45
 Revision         : -
 Revision Date    : 
 Compiler         : Gnu gfortran 11.3.0-1ubuntu1~22.04)
 Compilation Date : jan 28, 2023  18:42:05

 MPI Enabled;    Number of MPI Processes:       1
 OpenMP Enabled; Number of OpenMP Threads:      4

 MPI version: 3.1
 MPI library version: Open MPI v4.1.2, package: Debian OpenMPI, ident: 4.1.2, repo rev: v4.1.2, Nov 24, 2021

 Job TITLE        : Simple demonstration case.
 Job ID string    : simple_test


 Grid Dimensions, Mesh     1

   Cells in the X Direction            36
   Cells in the Y Direction            24
   Cells in the Z Direction            24
   Number of Grid Cells             20736


 Physical Dimensions, Mesh     1

   Length (m)                       3.600
   Width  (m)                       2.400
   Height (m)                       2.400
   Initial Time Step (s)            0.102

 Total Number of Grid Cells         20736


 Maximum Cell Aspect Ratio          1.000
 CFL Velocity Norm                      2


 Miscellaneous Parameters

   Simulation Start Time (s)          0.0
   Simulation End Time (s)           60.0
   Background Pressure (Pa)     101325.00
   Ambient Temperature (C)          20.00

   3D Cartesian
   VLES Calculation
   Eddy Viscosity: Deardorff Model (C_DEARDORFF = 0.10)
   Surface INERT Eddy Viscosity: WALE Model (C_WALE = 0.60)
   Surface BURNER Eddy Viscosity: WALE Model (C_WALE = 0.60)
   Turbulent Prandtl Number:         0.50
   Turbulent Schmidt Number:         0.50


 Background Stratification

      Z (m)     P_0 (Pa)    TMP_0 (C)
   ------------------------------------
        2.35    101297.45     20.00
        2.25    101298.62     20.00
        2.15    101299.80     20.00
        2.05    101300.97     20.00
        1.95    101302.14     20.00
        1.85    101303.31     20.00
        1.75    101304.48     20.00
        1.65    101305.65     20.00
        1.55    101306.83     20.00
        1.45    101308.00     20.00
        1.35    101309.17     20.00
        1.25    101310.34     20.00
        1.15    101311.51     20.00
        1.05    101312.68     20.00
        0.95    101313.86     20.00
        0.85    101315.03     20.00
        0.75    101316.20     20.00
        0.65    101317.38     20.00
        0.55    101318.55     20.00
        0.45    101319.72     20.00
        0.35    101320.89     20.00
        0.25    101322.06     20.00
        0.15    101323.23     20.00
        0.05    101324.41     20.00


 Mass Fraction Transformation Matrix to Convert Species Mixtures (Columns) to Primitive Species (Rows)

                         AIR       PROPANE   PRODUCTS
   PROPANE               0.000000  1.000000  0.000000
   NITROGEN              0.762470  0.000000  0.716510
   OXYGEN                0.230997  0.000000  0.000000
   CARBON DIOXIDE        0.000591  0.000000  0.178848
   WATER VAPOR           0.005941  0.000000  0.104039
   CARBON MONOXIDE       0.000000  0.000000  0.000000
   SOOT                  0.000000  0.000000  0.000603
   HYDROGEN              0.000000  0.000000  0.000000
   HYDROGEN CYANIDE      0.000000  0.000000  0.000000


 Primitive Species Information

   PROPANE
   Gas Species
   Molecular Weight (g/mol)            44.09562
   Ambient Density (kg/m^3)            1.833
   Enthalpy of Formation (J/kg)       -2.37E+06

   NITROGEN
   Gas Species
   Molecular Weight (g/mol)            28.01340
   Ambient Density (kg/m^3)            1.165
   Enthalpy of Formation (J/kg)        0.00E+00

   OXYGEN
   Gas Species
   Molecular Weight (g/mol)            31.99880
   Ambient Density (kg/m^3)            1.330
   Enthalpy of Formation (J/kg)        0.00E+00

   CARBON DIOXIDE
   Gas Species
   Molecular Weight (g/mol)            44.00950
   Ambient Density (kg/m^3)            1.830
   Enthalpy of Formation (J/kg)       -8.94E+06

   WATER VAPOR
   Gas Species
   Molecular Weight (g/mol)            18.01528
   Ambient Density (kg/m^3)            0.749
   Enthalpy of Formation (J/kg)       -1.34E+07

   CARBON MONOXIDE
   Gas Species
   Molecular Weight (g/mol)            28.01010
   Ambient Density (kg/m^3)            1.164
   Enthalpy of Formation (J/kg)       -3.95E+06

   SOOT
   Gas Species
   Molecular Weight (g/mol)            10.91042
   Ambient Density (kg/m^3)            0.454
   Enthalpy of Formation (J/kg)        0.00E+00

   HYDROGEN
   Gas Species
   Molecular Weight (g/mol)             2.01588
   Ambient Density (kg/m^3)            0.084
   Enthalpy of Formation (J/kg)        0.00E+00

   HYDROGEN CYANIDE
   Gas Species
   Molecular Weight (g/mol)            27.02534
   Ambient Density (kg/m^3)            1.123
   Enthalpy of Formation (J/kg)        4.92E+06


 Tracked (Lumped) Species Information

   AIR
   Molecular Weight (g/mol)            28.75198
   Ambient Density (kg/m^3)            1.195
   Initial Mass Fraction               1.000
   Enthalpy of Formation (J/kg)     -8.50E+04

   Sub Species                    Mass Fraction     Mole Fraction
   NITROGEN                       7.624699E-01      7.825727E-01
   OXYGEN                         2.309974E-01      2.075588E-01
   CARBON DIOXIDE                 5.914650E-04      3.864118E-04
   WATER VAPOR                    5.941209E-03      9.482037E-03
 
     Viscosity (kg/m/s) Ambient,  293 K:  1.80E-05
                                  500 K:  2.61E-05
                                 1000 K:  4.13E-05
                                 1500 K:  5.37E-05
   Therm. Cond. (W/m/K) Ambient,  293 K:  2.56E-02
                                  500 K:  3.81E-02
                                 1000 K:  6.69E-02
                                 1500 K:  9.25E-02
        Enthalpy (J/kg) Ambient,  293 K: -9.01E+04
                                  500 K:  1.22E+05
                                 1000 K:  6.72E+05
                                 1500 K:  1.27E+06
    Spec. Heat (J/kg/K) Ambient,  293 K:  1.02E+03
                                  500 K:  1.04E+03
                                 1000 K:  1.16E+03
                                 1500 K:  1.23E+03
   Diff. Coeff. (m^2/s) Ambient,  293 K:  1.99E-05
                                  500 K:  4.96E-05
                                 1000 K:  1.58E-04
                                 1500 K:  3.09E-04

   PROPANE
   Molecular Weight (g/mol)            44.09562
   Ambient Density (kg/m^3)            1.833
   Initial Mass Fraction               0.000
   Enthalpy of Formation (J/kg)     -2.37E+06

   Sub Species                    Mass Fraction     Mole Fraction
   PROPANE                        1.000000E+00      1.000000E+00
 
     Viscosity (kg/m/s) Ambient,  293 K:  8.08E-06
                                  500 K:  1.31E-05
                                 1000 K:  2.23E-05
                                 1500 K:  2.96E-05
   Therm. Cond. (W/m/K) Ambient,  293 K:  1.66E-02
                                  500 K:  4.18E-02
                                 1000 K:  1.11E-01
                                 1500 K:  1.72E-01
        Enthalpy (J/kg) Ambient,  293 K: -2.38E+06
                                  500 K: -1.95E+06
                                 1000 K: -2.77E+05
                                 1500 K:  1.90E+06
    Spec. Heat (J/kg/K) Ambient,  293 K:  1.65E+03
                                  500 K:  2.55E+03
                                 1000 K:  3.96E+03
                                 1500 K:  4.67E+03
   Diff. Coeff. (m^2/s) Ambient,  293 K:  1.11E-05
                                  500 K:  2.86E-05
                                 1000 K:  9.32E-05
                                 1500 K:  1.83E-04

   PRODUCTS
   Molecular Weight (g/mol)            28.19160
   Ambient Density (kg/m^3)            1.172
   Initial Mass Fraction               0.000
   Enthalpy of Formation (J/kg)     -3.00E+06

   Sub Species                    Mass Fraction     Mole Fraction
   NITROGEN                       7.165099E-01      7.210677E-01
   CARBON DIOXIDE                 1.788479E-01      1.145663E-01
   WATER VAPOR                    1.040395E-01      1.628084E-01
   CARBON MONOXIDE                0.000000E+00      0.000000E+00
   SOOT                           6.027784E-04      1.557528E-03
   HYDROGEN CYANIDE               0.000000E+00      0.000000E+00
 
     Viscosity (kg/m/s) Ambient,  293 K:  1.61E-05
                                  500 K:  2.39E-05
                                 1000 K:  3.89E-05
                                 1500 K:  5.14E-05
   Therm. Cond. (W/m/K) Ambient,  293 K:  2.34E-02
                                  500 K:  3.62E-02
                                 1000 K:  6.71E-02
                                 1500 K:  9.63E-02
        Enthalpy (J/kg) Ambient,  293 K: -3.00E+06
                                  500 K: -2.77E+06
                                 1000 K: -2.16E+06
                                 1500 K: -1.48E+06
    Spec. Heat (J/kg/K) Ambient,  293 K:  1.09E+03
                                  500 K:  1.14E+03
                                 1000 K:  1.30E+03
                                 1500 K:  1.40E+03
   Diff. Coeff. (m^2/s) Ambient,  293 K:  1.95E-05
                                  500 K:  4.95E-05
                                 1000 K:  1.60E-04
                                 1500 K:  3.15E-04


 Gas Phase Reaction Information

      Fuel                                           Heat of Combustion (kJ/kg)
      PROPANE                                                        45998.9362

      Primitive Species Stoich. Coeff.
      Species ID                                                          Molar
      PROPANE                                                         -1.000000
      NITROGEN                                                        -0.000000
      OXYGEN                                                          -4.962615
      CARBON DIOXIDE                                                   2.963626
      WATER VAPOR                                                      3.997979
      SOOT                                                             0.040416

      Tracked (Lumped) Species Stoich. Coeff.
      Species ID                                             Molar         Mass
      AIR                                               -23.909440   -15.589844
      PROPANE                                            -1.000000    -1.000000
      PRODUCTS                                           25.948845    16.589844

      Reaction Kinetics

      Fast chemistry

      ODE Solver:  EXPLICIT EULER
      Extinction Model:  EXTINCTION 2
      Auto-Ignition Temperature (K):       0.0
      Critical Flame Temperature (K):   1720.2

      Prescribed Radiative Fraction:     0.290


 Material Information


 Surface Conditions

   0 INERT (DEFAULT)

   1 BURNER
     HRR Per Unit Area (kW/m2)       1000.0
     PROPANE Mass Flux (kg/s/m2)   2.17E-02

   2 OPEN
     Passive Vent to Atmosphere

   3 MIRROR
     Symmetry Plane

   4 INTERPOLATED

   5 PERIODIC

   6 HVAC

   7 MASSLESS TRACER

   8 DROPLET

   9 MASSLESS TARGET

  10 PERIODIC FLOW ONLY


 Lagrangian Particle Classes


 Cut-off Density and Temperature

    Minimum Temperature:   -10.0 C
    Maximum Temperature:  2726.8 C
    Minimum Density:  1.195E-01 kg/m3
    Maximum Density:  4.084E+00 kg/m3


 Slice File Information, Mesh     1

   1 Nodes:   0  36  12  12   0  24, Quantity: TEMPERATURE
   2 Nodes:   0  36  12  12   0  24, Quantity: U-VELOCITY
   3 Nodes:   0  36  12  12   0  24, Quantity: V-VELOCITY
   4 Nodes:   0  36  12  12   0  24, Quantity: W-VELOCITY


 Boundary File Information

   1 Quantity: GAUGE HEAT FLUX


 Radiation Model Information

   Number of control angles  104
   Time step increment         3
   Angle increment             5
   Theta band N_phi   Solid angle
     1:        4     0.120
     2:       12     0.114
     3:       16     0.127
     4:       20     0.120
     5:       20     0.120
     6:       16     0.127
     7:       12     0.114
     8:        4     0.120
   Using gray gas absorption.
   Mean beam length  1.000E-01 m



 Run Time Diagnostics

       Time Step       1   January 28, 2023  20:09:45
       Step Size:    0.102E+00 s, Total Time:       0.10 s
       Pressure Iterations: 1
       Maximum Velocity Error:  0.17E-02 on Mesh 1 at (4,10,1)
       Maximum Pressure Error:  0.22E-05 on Mesh 1 at (5,12,1)
       ---------------------------------------------------------------
       Max CFL number:  0.26E-01 at (9,19,16)
       Max divergence:  0.18E-05 at (10,6,2)
       Min divergence: -0.49E-02 at (4,11,3)
       Max VN number:   0.25E-01 at (20,17,24)

       Time Step       2   January 28, 2023  20:09:46
       Step Size:    0.102E+00 s, Total Time:       0.20 s
       Pressure Iterations: 2
       Maximum Velocity Error:  0.27E-01 on Mesh 1 at (2,13,2)
       Maximum Pressure Error:  0.23E+00 on Mesh 1 at (4,11,3)
       ---------------------------------------------------------------
       Max CFL number:  0.26E-01 at (9,19,16)
       Max divergence:  0.22E+01 at (4,12,3)
       Min divergence: -0.19E-05 at (15,10,23)
       Max VN number:   0.25E-01 at (20,17,24)
       Total Heat Release Rate:             11.465 kW

       Time Step       3   January 28, 2023  20:09:46
       Step Size:    0.102E+00 s, Total Time:       0.31 s
       Pressure Iterations: 2
       Maximum Velocity Error:  0.19E-01 on Mesh 1 at (2,12,2)
       Maximum Pressure Error:  0.12E+03 on Mesh 1 at (1,11,3)
       ---------------------------------------------------------------
       Max CFL number:  0.38E+00 at (4,12,3)
       Max divergence:  0.14E+01 at (2,13,3)
       Min divergence: -0.19E-05 at (15,10,23)
       Max VN number:   0.57E-01 at (2,13,3)
       Total Heat Release Rate:              8.021 kW
       Radiation Loss to Boundaries:        -0.509 kW

       Time Step       4   January 28, 2023  20:09:46
       Step Size:    0.102E+00 s, Total Time:       0.41 s
       Pressure Iterations: 4
       Maximum Velocity Error:  0.29E-01 on Mesh 1 at (36,24,24)
       Maximum Pressure Error:  0.70E+03 on Mesh 1 at (1,11,3)
       ---------------------------------------------------------------
       Max CFL number:  0.28E+00 at (4,14,3)
       Max divergence:  0.13E+02 at (3,14,3)
       Min divergence: -0.19E-05 at (15,10,23)
       Max VN number:   0.41E-01 at (4,11,3)
       Total Heat Release Rate:             76.960 kW
       Radiation Loss to Boundaries:        -2.388 kW

       Time Step       5   January 28, 2023  20:09:46
       Step Size:    0.558E-01 s, Total Time:       0.46 s
       Pressure Iterations: 7
       Maximum Velocity Error:  0.29E-01 on Mesh 1 at (1,14,2)
       Maximum Pressure Error:  0.16E+04 on Mesh 1 at (2,11,3)
       ---------------------------------------------------------------
       Max CFL number:  0.90E+00 at (1,11,3)
       Max divergence:  0.25E+01 at (3,14,3)
       Min divergence: -0.22E+01 at (4,14,3)
       Max VN number:   0.43E+00 at (3,14,3)
       Total Heat Release Rate:             66.752 kW
       Radiation Loss to Boundaries:       -39.201 kW
       No. of CLIP DT restrictions:  1

       Time Step       6   January 28, 2023  20:09:46
       Step Size:    0.558E-01 s, Total Time:       0.52 s
       Pressure Iterations: 6
       Maximum Velocity Error:  0.25E-01 on Mesh 1 at (1,14,2)
       Maximum Pressure Error:  0.11E+04 on Mesh 1 at (1,14,3)
       ---------------------------------------------------------------
       Max CFL number:  0.32E+00 at (4,14,3)
       Max divergence:  0.56E+01 at (4,14,3)
       Min divergence: -0.40E-05 at (36,10,21)
       Max VN number:   0.73E-01 at (2,11,3)
       Total Heat Release Rate:             84.384 kW
       Radiation Loss to Boundaries:       -40.960 kW

       Time Step       7   January 28, 2023  20:09:46
       Step Size:    0.614E-01 s, Total Time:       0.58 s
       Pressure Iterations: 6
       Maximum Velocity Error:  0.26E-01 on Mesh 1 at (1,11,2)
       Maximum Pressure Error:  0.17E+04 on Mesh 1 at (1,11,3)
       ---------------------------------------------------------------
       Max CFL number:  0.66E+00 at (4,14,3)
       Max divergence:  0.13E+01 at (3,14,4)
       Min divergence: -0.83E+01 at (3,11,3)
       Max VN number:   0.31E+00 at (1,10,3)
       Total Heat Release Rate:             67.952 kW
       Radiation Loss to Boundaries:       -85.482 kW

       Time Step       8   January 28, 2023  20:09:46
       Step Size:    0.449E-01 s, Total Time:       0.63 s
       Pressure Iterations: 6
       Maximum Velocity Error:  0.32E-01 on Mesh 1 at (1,10,2)
       Maximum Pressure Error:  0.14E+04 on Mesh 1 at (1,13,3)
       ---------------------------------------------------------------
       Max CFL number:  0.86E+00 at (3,11,3)
       Max divergence:  0.92E+01 at (3,11,3)
       Min divergence: -0.82E+00 at (3,13,3)
       Max VN number:   0.17E+00 at (1,10,4)
       Total Heat Release Rate:             55.517 kW
       Radiation Loss to Boundaries:       -12.329 kW

       Time Step       9   January 28, 2023  20:09:46
       Step Size:    0.449E-01 s, Total Time:       0.67 s
       Pressure Iterations: 6
       Maximum Velocity Error:  0.32E-01 on Mesh 1 at (1,11,2)
       Maximum Pressure Error:  0.12E+04 on Mesh 1 at (1,11,3)
       ---------------------------------------------------------------
       Max CFL number:  0.77E+00 at (3,11,3)
       Max divergence:  0.31E+01 at (4,14,3)
       Min divergence: -0.78E+00 at (3,13,3)
       Max VN number:   0.50E+00 at (1,10,4)
       Total Heat Release Rate:             53.407 kW
       Radiation Loss to Boundaries:       -26.249 kW

       Time Step      10   January 28, 2023  20:09:46
       Step Size:    0.494E-01 s, Total Time:       0.72 s
       Pressure Iterations: 3
       Maximum Velocity Error:  0.15E-01 on Mesh 1 at (1,11,2)
       Maximum Pressure Error:  0.12E+04 on Mesh 1 at (1,11,3)
       ---------------------------------------------------------------
       Max CFL number:  0.78E+00 at (4,14,3)
       Max divergence:  0.59E+01 at (1,14,3)
       Min divergence: -0.92E+00 at (3,13,3)
       Max VN number:   0.75E+00 at (1,10,4)
       Total Heat Release Rate:             66.326 kW
       Radiation Loss to Boundaries:       -20.003 kW

       Time Step      20   January 28, 2023  20:09:48
       Step Size:    0.249E-01 s, Total Time:       1.06 s
       Pressure Iterations: 1
       Maximum Velocity Error:  0.18E-01 on Mesh 1 at (1,11,2)
       Maximum Pressure Error:  0.61E+03 on Mesh 1 at (1,13,5)
       ---------------------------------------------------------------
       Max CFL number:  0.98E+00 at (3,12,5)
       Max divergence:  0.66E+01 at (3,12,3)
       Min divergence: -0.17E+01 at (1,15,6)
       Max VN number:   0.74E+00 at (1,15,5)
       Total Heat Release Rate:            153.824 kW
       Radiation Loss to Boundaries:       -51.229 kW

       Time Step      30   January 28, 2023  20:09:49
       Step Size:    0.150E-01 s, Total Time:       1.23 s
       Pressure Iterations: 1
       Maximum Velocity Error:  0.12E-01 on Mesh 1 at (1,12,2)
       Maximum Pressure Error:  0.74E+03 on Mesh 1 at (1,12,7)
       ---------------------------------------------------------------
       Max CFL number:  0.97E+00 at (1,12,8)
       Max divergence:  0.67E+01 at (3,11,3)
       Min divergence: -0.26E+01 at (1,9,8)
       Max VN number:   0.62E+00 at (1,10,7)
       Total Heat Release Rate:            135.374 kW
       Radiation Loss to Boundaries:       -36.113 kW

       Time Step      40   January 28, 2023  20:09:49
       Step Size:    0.130E-01 s, Total Time:       1.36 s
       Pressure Iterations: 1
       Maximum Velocity Error:  0.47E-01 on Mesh 1 at (3,12,2)
       Maximum Pressure Error:  0.95E+03 on Mesh 1 at (1,12,9)
       ---------------------------------------------------------------
       Max CFL number:  0.90E+00 at (1,12,12)
       Max divergence:  0.69E+01 at (3,14,3)
       Min divergence: -0.20E+01 at (1,12,11)
       Max VN number:   0.32E+00 at (1,8,9)
       Total Heat Release Rate:            132.097 kW
       Radiation Loss to Boundaries:       -34.286 kW

       Time Step      50   January 28, 2023  20:09:50
       Step Size:    0.115E-01 s, Total Time:       1.49 s
       Pressure Iterations: 1
       Maximum Velocity Error:  0.16E-01 on Mesh 1 at (3,13,2)
       Maximum Pressure Error:  0.12E+04 on Mesh 1 at (1,12,9)
       ---------------------------------------------------------------
       Max CFL number:  0.93E+00 at (2,13,10)
       Max divergence:  0.74E+01 at (3,11,3)
       Min divergence: -0.17E+01 at (2,12,16)
       Max VN number:   0.25E+00 at (2,12,15)
       Total Heat Release Rate:            125.744 kW
       Radiation Loss to Boundaries:       -33.316 kW

       Time Step      60   January 28, 2023  20:09:51
       Step Size:    0.944E-02 s, Total Time:       1.59 s
       Pressure Iterations: 1
       Maximum Velocity Error:  0.12E-01 on Mesh 1 at (4,11,2)
       Maximum Pressure Error:  0.98E+03 on Mesh 1 at (1,12,12)
       ---------------------------------------------------------------
       Max CFL number:  0.96E+00 at (1,12,13)
       Max divergence:  0.77E+01 at (3,11,3)
       Min divergence: -0.21E+01 at (1,12,10)
       Max VN number:   0.27E+00 at (1,14,16)
       Total Heat Release Rate:            134.282 kW
       Radiation Loss to Boundaries:       -36.225 kW

       Time Step      70   January 28, 2023  20:09:52
       Step Size:    0.827E-02 s, Total Time:       1.68 s
       Pressure Iterations: 1
       Maximum Velocity Error:  0.69E-02 on Mesh 1 at (3,13,2)
       Maximum Pressure Error:  0.11E+04 on Mesh 1 at (1,12,14)
       ---------------------------------------------------------------
       Max CFL number:  0.93E+00 at (1,12,20)
       Max divergence:  0.78E+01 at (3,14,3)
       Min divergence: -0.22E+01 at (2,13,10)
       Max VN number:   0.31E+00 at (1,14,12)
       Total Heat Release Rate:            145.818 kW
       Radiation Loss to Boundaries:       -38.614 kW

       Time Step      80   January 28, 2023  20:09:53
       Step Size:    0.827E-02 s, Total Time:       1.76 s
       Pressure Iterations: 1
       Maximum Velocity Error:  0.20E-02 on Mesh 1 at (3,12,2)
       Maximum Pressure Error:  0.14E+04 on Mesh 1 at (1,12,19)
       ---------------------------------------------------------------
       Max CFL number:  0.88E+00 at (1,12,19)
       Max divergence:  0.76E+01 at (4,12,3)
       Min divergence: -0.30E+01 at (2,13,14)
       Max VN number:   0.31E+00 at (1,10,22)
       Total Heat Release Rate:            154.053 kW
       Radiation Loss to Boundaries:       -40.847 kW

       Time Step      90   January 28, 2023  20:09:54
       Step Size:    0.827E-02 s, Total Time:       1.85 s
       Pressure Iterations: 1
       Maximum Velocity Error:  0.24E-02 on Mesh 1 at (3,12,2)
       Maximum Pressure Error:  0.10E+04 on Mesh 1 at (1,12,24)
       ---------------------------------------------------------------
       Max CFL number:  0.86E+00 at (1,12,23)
       Max divergence:  0.77E+01 at (4,12,3)
       Min divergence: -0.27E+01 at (3,12,13)
       Max VN number:   0.77E+00 at (1,10,23)
       Total Heat Release Rate:            157.679 kW
       Radiation Loss to Boundaries:       -41.680 kW

       Time Step     100   January 28, 2023  20:09:55
       Step Size:    0.910E-02 s, Total Time:       1.94 s
       Pressure Iterations: 1
       Maximum Velocity Error:  0.15E-02 on Mesh 1 at (3,13,2)
       Maximum Pressure Error:  0.90E+03 on Mesh 1 at (1,12,16)
       ---------------------------------------------------------------
       Max CFL number:  0.87E+00 at (1,12,15)
       Max divergence:  0.78E+01 at (4,12,3)
       Min divergence: -0.23E+01 at (2,13,14)
       Max VN number:   0.64E+00 at (1,8,23)
       Total Heat Release Rate:            160.512 kW
       Radiation Loss to Boundaries:       -43.279 kW

       Time Step     200   January 28, 2023  20:10:05
       Step Size:    0.115E-01 s, Total Time:       2.91 s
       Pressure Iterations: 1
       Maximum Velocity Error:  0.19E-01 on Mesh 1 at (1,14,2)
       Maximum Pressure Error:  0.70E+03 on Mesh 1 at (1,13,15)
       ---------------------------------------------------------------
       Max CFL number:  0.87E+00 at (2,13,20)
       Max divergence:  0.12E+02 at (3,13,3)
       Min divergence: -0.17E+01 at (1,23,24)
       Max VN number:   0.80E+00 at (1,23,23)
       Total Heat Release Rate:            167.691 kW
       Radiation Loss to Boundaries:       -46.807 kW

       Time Step     300   January 28, 2023  20:10:15
       Step Size:    0.935E-02 s, Total Time:       3.92 s
       Pressure Iterations: 2
       Maximum Velocity Error:  0.18E-01 on Mesh 1 at (1,12,2)
       Maximum Pressure Error:  0.15E+04 on Mesh 1 at (1,12,3)
       ---------------------------------------------------------------
       Max CFL number:  0.93E+00 at (1,13,17)
       Max divergence:  0.85E+01 at (1,13,4)
       Min divergence: -0.28E+01 at (1,14,18)
       Max VN number:   0.73E+00 at (1,13,23)
       Total Heat Release Rate:            148.047 kW
       Radiation Loss to Boundaries:       -38.366 kW

       Time Step     400   January 28, 2023  20:10:25
       Step Size:    0.101E-01 s, Total Time:       4.91 s
       Pressure Iterations: 6
       Maximum Velocity Error:  0.20E-01 on Mesh 1 at (1,12,2)
       Maximum Pressure Error:  0.17E+04 on Mesh 1 at (1,12,3)
       ---------------------------------------------------------------
       Max CFL number:  0.94E+00 at (1,13,12)
       Max divergence:  0.17E+02 at (1,13,4)
       Min divergence: -0.24E+01 at (3,14,17)
       Max VN number:   0.50E+00 at (1,12,22)
       Total Heat Release Rate:            163.476 kW
       Radiation Loss to Boundaries:       -42.502 kW

       Time Step     500   January 28, 2023  20:10:35
       Step Size:    0.990E-02 s, Total Time:       5.86 s
       Pressure Iterations: 2
       Maximum Velocity Error:  0.15E-01 on Mesh 1 at (2,13,2)
       Maximum Pressure Error:  0.14E+04 on Mesh 1 at (1,14,11)
       ---------------------------------------------------------------
       Max CFL number:  0.97E+00 at (1,14,13)
       Max divergence:  0.87E+01 at (4,14,3)
       Min divergence: -0.28E+01 at (3,12,10)
       Max VN number:   0.51E+00 at (1,9,23)
       Total Heat Release Rate:            165.093 kW
       Radiation Loss to Boundaries:       -45.097 kW

       Time Step     600   January 28, 2023  20:10:44
       Step Size:    0.104E-01 s, Total Time:       6.89 s
       Pressure Iterations: 1
       Maximum Velocity Error:  0.29E-01 on Mesh 1 at (36,3,24)
       Maximum Pressure Error:  0.93E+03 on Mesh 1 at (1,12,12)
       ---------------------------------------------------------------
       Max CFL number:  0.81E+00 at (1,12,22)
       Max divergence:  0.83E+01 at (3,12,3)
       Min divergence: -0.23E+01 at (3,12,15)
       Max VN number:   0.41E+00 at (7,15,24)
       Total Heat Release Rate:            142.845 kW
       Radiation Loss to Boundaries:       -38.116 kW

       Time Step     700   January 28, 2023  20:10:54
       Step Size:    0.915E-02 s, Total Time:       7.83 s
       Pressure Iterations: 1
       Maximum Velocity Error:  0.17E-01 on Mesh 1 at (3,14,2)
       Maximum Pressure Error:  0.11E+04 on Mesh 1 at (1,10,22)
       ---------------------------------------------------------------
       Max CFL number:  0.84E+00 at (1,10,21)
       Max divergence:  0.77E+01 at (2,14,3)
       Min divergence: -0.24E+01 at (2,12,14)
       Max VN number:   0.54E+00 at (1,9,23)
       Total Heat Release Rate:            163.052 kW
       Radiation Loss to Boundaries:       -46.540 kW

       Time Step     800   January 28, 2023  20:11:04
       Step Size:    0.778E-02 s, Total Time:       8.79 s
       Pressure Iterations: 1
       Maximum Velocity Error:  0.18E-01 on Mesh 1 at (1,13,2)
       Maximum Pressure Error:  0.20E+04 on Mesh 1 at (1,15,15)
       ---------------------------------------------------------------
       Max CFL number:  0.88E+00 at (1,15,16)
       Max divergence:  0.95E+01 at (2,11,3)
       Min divergence: -0.30E+01 at (3,11,9)
       Max VN number:   0.48E+00 at (1,18,22)
       Total Heat Release Rate:            183.281 kW
       Radiation Loss to Boundaries:       -51.646 kW

       Time Step     900   January 28, 2023  20:11:14
       Step Size:    0.105E-01 s, Total Time:       9.72 s
       Pressure Iterations: 1
       Maximum Velocity Error:  0.27E-01 on Mesh 1 at (1,13,2)
       Maximum Pressure Error:  0.12E+04 on Mesh 1 at (1,16,24)
       ---------------------------------------------------------------
       Max CFL number:  0.89E+00 at (1,16,23)
       Max divergence:  0.83E+01 at (1,14,3)
       Min divergence: -0.25E+01 at (2,12,13)
       Max VN number:   0.75E+00 at (1,2,23)
       Total Heat Release Rate:            133.641 kW
       Radiation Loss to Boundaries:       -39.682 kW

       Time Step    1000   January 28, 2023  20:11:24
       Step Size:    0.112E-01 s, Total Time:      10.72 s
       Pressure Iterations: 1
       Maximum Velocity Error:  0.38E-01 on Mesh 1 at (1,12,2)
       Maximum Pressure Error:  0.73E+03 on Mesh 1 at (1,13,10)
       ---------------------------------------------------------------
       Max CFL number:  0.98E+00 at (2,13,14)
       Max divergence:  0.78E+01 at (4,13,3)
       Min divergence: -0.29E+01 at (1,13,13)
       Max VN number:   0.82E+00 at (1,17,23)
       Total Heat Release Rate:            144.261 kW
       Radiation Loss to Boundaries:       -40.401 kW

       Time Step    1100   January 28, 2023  20:11:34
       Step Size:    0.881E-02 s, Total Time:      11.81 s
       Pressure Iterations: 2
       Maximum Velocity Error:  0.17E-01 on Mesh 1 at (2,12,2)
       Maximum Pressure Error:  0.15E+04 on Mesh 1 at (1,12,10)
       ---------------------------------------------------------------
       Max CFL number:  0.89E+00 at (1,12,17)
       Max divergence:  0.94E+01 at (1,14,3)
       Min divergence: -0.34E+01 at (2,12,9)
       Max VN number:   0.66E+00 at (1,16,20)
       Total Heat Release Rate:            164.351 kW
       Radiation Loss to Boundaries:       -46.128 kW

       Time Step    1200   January 28, 2023  20:11:44
       Step Size:    0.919E-02 s, Total Time:      12.77 s
       Pressure Iterations: 1
       Maximum Velocity Error:  0.16E-01 on Mesh 1 at (2,12,2)
       Maximum Pressure Error:  0.11E+04 on Mesh 1 at (1,12,21)
       ---------------------------------------------------------------
       Max CFL number:  0.88E+00 at (1,12,21)
       Max divergence:  0.89E+01 at (3,13,3)
       Min divergence: -0.24E+01 at (2,12,3)
       Max VN number:   0.86E+00 at (1,16,22)
       Total Heat Release Rate:            154.085 kW
       Radiation Loss to Boundaries:       -44.703 kW

       Time Step    1300   January 28, 2023  20:11:54
       Step Size:    0.105E-01 s, Total Time:      13.73 s
       Pressure Iterations: 3
       Maximum Velocity Error:  0.17E-01 on Mesh 1 at (4,12,2)
       Maximum Pressure Error:  0.14E+04 on Mesh 1 at (1,14,11)
       ---------------------------------------------------------------
       Max CFL number:  0.91E+00 at (1,14,14)
       Max divergence:  0.10E+02 at (2,13,3)
       Min divergence: -0.29E+01 at (1,14,18)
       Max VN number:   0.69E+00 at (1,7,22)
       Total Heat Release Rate:            161.402 kW
       Radiation Loss to Boundaries:       -46.744 kW

       Time Step    1400   January 28, 2023  20:12:04
       Step Size:    0.974E-02 s, Total Time:      14.72 s
       Pressure Iterations: 1
       Maximum Velocity Error:  0.32E-01 on Mesh 1 at (2,13,2)
       Maximum Pressure Error:  0.17E+04 on Mesh 1 at (1,15,16)
       ---------------------------------------------------------------
       Max CFL number:  0.93E+00 at (1,15,17)
       Max divergence:  0.81E+01 at (3,12,3)
       Min divergence: -0.23E+01 at (2,13,4)
       Max VN number:   0.65E+00 at (1,19,23)
       Total Heat Release Rate:            152.087 kW
       Radiation Loss to Boundaries:       -48.242 kW

       Time Step    1500   January 28, 2023  20:12:14
       Step Size:    0.103E-01 s, Total Time:      15.74 s
       Pressure Iterations: 3
       Maximum Velocity Error:  0.21E-01 on Mesh 1 at (1,12,2)
       Maximum Pressure Error:  0.15E+04 on Mesh 1 at (1,13,10)
       ---------------------------------------------------------------
       Max CFL number:  0.87E+00 at (1,10,15)
       Max divergence:  0.15E+02 at (1,12,10)
       Min divergence: -0.24E+01 at (1,10,16)
       Max VN number:   0.62E+00 at (1,12,17)
       Total Heat Release Rate:            185.171 kW
       Radiation Loss to Boundaries:       -54.507 kW

       Time Step    1600   January 28, 2023  20:12:24
       Step Size:    0.930E-02 s, Total Time:      16.71 s
       Pressure Iterations: 1
       Maximum Velocity Error:  0.24E-01 on Mesh 1 at (2,13,2)
       Maximum Pressure Error:  0.97E+03 on Mesh 1 at (1,10,24)
       ---------------------------------------------------------------
       Max CFL number:  0.84E+00 at (1,10,24)
       Max divergence:  0.79E+01 at (2,11,3)
       Min divergence: -0.25E+01 at (1,13,18)
       Max VN number:   0.50E+00 at (1,20,23)
       Total Heat Release Rate:            145.794 kW
       Radiation Loss to Boundaries:       -44.318 kW

       Time Step    1700   January 28, 2023  20:12:34
       Step Size:    0.110E-01 s, Total Time:      17.67 s
       Pressure Iterations: 1
       Maximum Velocity Error:  0.20E-01 on Mesh 1 at (3,13,2)
       Maximum Pressure Error:  0.91E+03 on Mesh 1 at (1,12,12)
       ---------------------------------------------------------------
       Max CFL number:  0.77E+00 at (1,12,12)
       Max divergence:  0.81E+01 at (3,14,3)
       Min divergence: -0.26E+01 at (2,12,15)
       Max VN number:   0.69E+00 at (1,2,23)
       Total Heat Release Rate:            149.085 kW
       Radiation Loss to Boundaries:       -48.947 kW

       Time Step    1800   January 28, 2023  20:12:44
       Step Size:    0.936E-02 s, Total Time:      18.61 s
       Pressure Iterations: 1
       Maximum Velocity Error:  0.62E-02 on Mesh 1 at (1,12,2)
       Maximum Pressure Error:  0.10E+04 on Mesh 1 at (1,12,12)
       ---------------------------------------------------------------
       Max CFL number:  0.78E+00 at (1,12,17)
       Max divergence:  0.88E+01 at (1,13,3)
       Min divergence: -0.21E+01 at (2,12,15)
       Max VN number:   0.95E+00 at (1,14,23)
       Total Heat Release Rate:            172.793 kW
       Radiation Loss to Boundaries:       -51.780 kW

       Time Step    1900   January 28, 2023  20:12:54
       Step Size:    0.904E-02 s, Total Time:      19.55 s
       Pressure Iterations: 1
       Maximum Velocity Error:  0.37E-01 on Mesh 1 at (2,12,2)
       Maximum Pressure Error:  0.15E+04 on Mesh 1 at (1,10,21)
       ---------------------------------------------------------------
       Max CFL number:  0.90E+00 at (1,10,20)
       Max divergence:  0.79E+01 at (1,14,3)
       Min divergence: -0.32E+01 at (1,12,3)
       Max VN number:   0.50E+00 at (1,6,23)
       Total Heat Release Rate:            136.251 kW
       Radiation Loss to Boundaries:       -42.510 kW

       Time Step    2000   January 28, 2023  20:13:04
       Step Size:    0.126E-01 s, Total Time:      20.56 s
       Pressure Iterations: 2
       Maximum Velocity Error:  0.22E-01 on Mesh 1 at (1,13,2)
       Maximum Pressure Error:  0.14E+04 on Mesh 1 at (1,14,12)
       ---------------------------------------------------------------
       Max CFL number:  0.92E+00 at (3,14,14)
       Max divergence:  0.11E+02 at (1,14,6)
       Min divergence: -0.29E+01 at (1,13,3)
       Max VN number:   0.84E+00 at (1,20,22)
       Total Heat Release Rate:            179.959 kW
       Radiation Loss to Boundaries:       -52.902 kW

       Time Step    2100   January 28, 2023  20:13:14
       Step Size:    0.123E-01 s, Total Time:      21.63 s
       Pressure Iterations: 1
       Maximum Velocity Error:  0.42E-01 on Mesh 1 at (3,14,2)
       Maximum Pressure Error:  0.93E+03 on Mesh 1 at (1,13,10)
       ---------------------------------------------------------------
       Max CFL number:  0.94E+00 at (1,13,10)
       Max divergence:  0.80E+01 at (2,14,3)
       Min divergence: -0.24E+01 at (2,12,3)
       Max VN number:   0.66E+00 at (1,12,23)
       Total Heat Release Rate:            135.216 kW
       Radiation Loss to Boundaries:       -45.953 kW

       Time Step    2200   January 28, 2023  20:13:24
       Step Size:    0.104E-01 s, Total Time:      22.62 s
       Pressure Iterations: 1
       Maximum Velocity Error:  0.18E-01 on Mesh 1 at (36,22,24)
       Maximum Pressure Error:  0.83E+03 on Mesh 1 at (1,13,19)
       ---------------------------------------------------------------
       Max CFL number:  0.92E+00 at (1,13,19)
       Max divergence:  0.92E+01 at (4,13,3)
       Min divergence: -0.18E+01 at (2,13,16)
       Max VN number:   0.70E+00 at (1,23,23)
       Total Heat Release Rate:            182.356 kW
       Radiation Loss to Boundaries:       -59.623 kW

       Time Step    2300   January 28, 2023  20:13:34
       Step Size:    0.100E-01 s, Total Time:      23.64 s
       Pressure Iterations: 1
       Maximum Velocity Error:  0.22E-01 on Mesh 1 at (3,12,2)
       Maximum Pressure Error:  0.10E+04 on Mesh 1 at (1,12,14)
       ---------------------------------------------------------------
       Max CFL number:  0.93E+00 at (1,13,14)
       Max divergence:  0.89E+01 at (1,14,3)
       Min divergence: -0.26E+01 at (2,13,10)
       Max VN number:   0.56E+00 at (1,2,23)
       Total Heat Release Rate:            146.531 kW
       Radiation Loss to Boundaries:       -45.880 kW

       Time Step    2400   January 28, 2023  20:13:44
       Step Size:    0.101E-01 s, Total Time:      24.63 s
       Pressure Iterations: 2
       Maximum Velocity Error:  0.15E-01 on Mesh 1 at (2,13,2)
       Maximum Pressure Error:  0.70E+03 on Mesh 1 at (1,13,13)
       ---------------------------------------------------------------
       Max CFL number:  0.79E+00 at (2,13,16)
       Max divergence:  0.11E+02 at (4,12,3)
       Min divergence: -0.28E+01 at (1,13,8)
       Max VN number:   0.83E+00 at (1,19,23)
       Total Heat Release Rate:            157.536 kW
       Radiation Loss to Boundaries:       -52.463 kW

       Time Step    2500   January 28, 2023  20:13:54
       Step Size:    0.109E-01 s, Total Time:      25.57 s
       Pressure Iterations: 2
       Maximum Velocity Error:  0.14E-01 on Mesh 1 at (1,12,2)
       Maximum Pressure Error:  0.74E+03 on Mesh 1 at (1,12,3)
       ---------------------------------------------------------------
       Max CFL number:  0.90E+00 at (2,14,23)
       Max divergence:  0.78E+01 at (2,14,3)
       Min divergence: -0.19E+01 at (1,12,3)
       Max VN number:   0.71E+00 at (1,15,21)
       Total Heat Release Rate:            154.421 kW
       Radiation Loss to Boundaries:       -50.456 kW

       Time Step    2600   January 28, 2023  20:14:04
       Step Size:    0.107E-01 s, Total Time:      26.60 s
       Pressure Iterations: 2
       Maximum Velocity Error:  0.17E-01 on Mesh 1 at (2,12,2)
       Maximum Pressure Error:  0.13E+04 on Mesh 1 at (1,13,15)
       ---------------------------------------------------------------
       Max CFL number:  0.94E+00 at (1,13,15)
       Max divergence:  0.80E+01 at (2,13,4)
       Min divergence: -0.39E+01 at (2,12,3)
       Max VN number:   0.57E+00 at (1,14,22)
       Total Heat Release Rate:            182.018 kW
       Radiation Loss to Boundaries:       -58.115 kW

       Time Step    2700   January 28, 2023  20:14:14
       Step Size:    0.107E-01 s, Total Time:      27.61 s
       Pressure Iterations: 1
       Maximum Velocity Error:  0.16E-01 on Mesh 1 at (2,13,2)
       Maximum Pressure Error:  0.98E+03 on Mesh 1 at (1,12,13)
       ---------------------------------------------------------------
       Max CFL number:  0.91E+00 at (2,11,21)
       Max divergence:  0.78E+01 at (4,12,3)
       Min divergence: -0.27E+01 at (2,13,3)
       Max VN number:   0.56E+00 at (1,9,21)
       Total Heat Release Rate:            133.722 kW
       Radiation Loss to Boundaries:       -43.555 kW

       Time Step    2800   January 28, 2023  20:14:24
       Step Size:    0.997E-02 s, Total Time:      28.53 s
       Pressure Iterations: 1
       Maximum Velocity Error:  0.26E-01 on Mesh 1 at (3,12,2)
       Maximum Pressure Error:  0.72E+03 on Mesh 1 at (1,12,17)
       ---------------------------------------------------------------
       Max CFL number:  0.88E+00 at (1,12,15)
       Max divergence:  0.85E+01 at (3,13,4)
       Min divergence: -0.22E+01 at (4,13,11)
       Max VN number:   0.66E+00 at (1,9,23)
       Total Heat Release Rate:            147.636 kW
       Radiation Loss to Boundaries:       -46.457 kW

       Time Step    2900   January 28, 2023  20:14:34
       Step Size:    0.819E-02 s, Total Time:      29.57 s
       Pressure Iterations: 1
       Maximum Velocity Error:  0.14E-01 on Mesh 1 at (3,14,2)
       Maximum Pressure Error:  0.17E+04 on Mesh 1 at (1,12,13)
       ---------------------------------------------------------------
       Max CFL number:  0.83E+00 at (1,12,18)
       Max divergence:  0.11E+02 at (2,14,3)
       Min divergence: -0.35E+01 at (3,13,9)
       Max VN number:   0.79E+00 at (1,13,23)
       Total Heat Release Rate:            188.367 kW
       Radiation Loss to Boundaries:       -59.927 kW

       Time Step    3000   January 28, 2023  20:14:44
       Step Size:    0.942E-02 s, Total Time:      30.63 s
       Pressure Iterations: 1
       Maximum Velocity Error:  0.11E-01 on Mesh 1 at (4,14,2)
       Maximum Pressure Error:  0.11E+04 on Mesh 1 at (1,12,24)
       ---------------------------------------------------------------
       Max CFL number:  0.88E+00 at (1,12,24)
       Max divergence:  0.81E+01 at (2,13,3)
       Min divergence: -0.25E+01 at (1,12,12)
       Max VN number:   0.94E+00 at (1,13,23)
       Total Heat Release Rate:            167.748 kW
       Radiation Loss to Boundaries:       -53.490 kW

       Time Step    3100   January 28, 2023  20:14:55
       Step Size:    0.105E-01 s, Total Time:      31.65 s
       Pressure Iterations: 1
       Maximum Velocity Error:  0.15E-01 on Mesh 1 at (36,8,3)
       Maximum Pressure Error:  0.11E+04 on Mesh 1 at (1,13,9)
       ---------------------------------------------------------------
       Max CFL number:  0.92E+00 at (1,13,11)
       Max divergence:  0.78E+01 at (2,11,3)
       Min divergence: -0.22E+01 at (2,11,15)
       Max VN number:   0.75E+00 at (1,12,23)
       Total Heat Release Rate:            163.515 kW
       Radiation Loss to Boundaries:       -52.067 kW

       Time Step    3200   January 28, 2023  20:15:05
       Step Size:    0.106E-01 s, Total Time:      32.64 s
       Pressure Iterations: 1
       Maximum Velocity Error:  0.86E-02 on Mesh 1 at (36,24,16)
       Maximum Pressure Error:  0.47E+03 on Mesh 1 at (1,13,10)
       ---------------------------------------------------------------
       Max CFL number:  0.81E+00 at (2,13,16)
       Max divergence:  0.85E+01 at (2,14,3)
       Min divergence: -0.25E+01 at (2,13,13)
       Max VN number:   0.83E+00 at (1,19,23)
       Total Heat Release Rate:            149.456 kW
       Radiation Loss to Boundaries:       -50.611 kW

       Time Step    3300   January 28, 2023  20:15:14
       Step Size:    0.858E-02 s, Total Time:      33.60 s
       Pressure Iterations: 2
       Maximum Velocity Error:  0.84E-02 on Mesh 1 at (2,13,2)
       Maximum Pressure Error:  0.18E+03 on Mesh 1 at (1,15,18)
       ---------------------------------------------------------------
       Max CFL number:  0.97E+00 at (1,15,19)
       Max divergence:  0.86E+01 at (1,14,3)
       Min divergence: -0.21E+01 at (1,15,10)
       Max VN number:   0.64E+00 at (1,14,19)
       Total Heat Release Rate:            159.339 kW
       Radiation Loss to Boundaries:       -51.923 kW

       Time Step    3400   January 28, 2023  20:15:24
       Step Size:    0.102E-01 s, Total Time:      34.57 s
       Pressure Iterations: 2
       Maximum Velocity Error:  0.22E-01 on Mesh 1 at (1,13,2)
       Maximum Pressure Error:  0.10E+04 on Mesh 1 at (1,14,18)
       ---------------------------------------------------------------
       Max CFL number:  0.90E+00 at (1,14,16)
       Max divergence:  0.78E+01 at (2,14,3)
       Min divergence: -0.24E+01 at (2,12,14)
       Max VN number:   0.58E+00 at (4,12,24)
       Total Heat Release Rate:            145.025 kW
       Radiation Loss to Boundaries:       -48.039 kW

       Time Step    3500   January 28, 2023  20:15:34
       Step Size:    0.987E-02 s, Total Time:      35.59 s
       Pressure Iterations: 2
       Maximum Velocity Error:  0.34E-01 on Mesh 1 at (3,12,2)
       Maximum Pressure Error:  0.16E+04 on Mesh 1 at (1,14,4)
       ---------------------------------------------------------------
       Max CFL number:  0.81E+00 at (1,12,17)
       Max divergence:  0.81E+01 at (4,12,3)
       Min divergence: -0.26E+01 at (2,12,16)
       Max VN number:   0.61E+00 at (1,14,23)
       Total Heat Release Rate:            144.763 kW
       Radiation Loss to Boundaries:       -48.238 kW

       Time Step    3600   January 28, 2023  20:15:44
       Step Size:    0.857E-02 s, Total Time:      36.62 s
       Pressure Iterations: 4
       Maximum Velocity Error:  0.22E-01 on Mesh 1 at (3,13,2)
       Maximum Pressure Error:  0.12E+04 on Mesh 1 at (1,13,11)
       ---------------------------------------------------------------
       Max CFL number:  0.88E+00 at (1,10,17)
       Max divergence:  0.18E+02 at (1,13,9)
       Min divergence: -0.35E+01 at (1,10,14)
       Max VN number:   0.40E+00 at (1,2,23)
       Total Heat Release Rate:            180.746 kW
       Radiation Loss to Boundaries:       -54.565 kW

       Time Step    3700   January 28, 2023  20:15:54
       Step Size:    0.127E-01 s, Total Time:      37.63 s
       Pressure Iterations: 1
       Maximum Velocity Error:  0.25E-01 on Mesh 1 at (1,11,2)
       Maximum Pressure Error:  0.55E+03 on Mesh 1 at (1,11,3)
       ---------------------------------------------------------------
       Max CFL number:  0.91E+00 at (1,12,17)
       Max divergence:  0.80E+01 at (2,12,3)
       Min divergence: -0.37E+01 at (3,14,10)
       Max VN number:   0.54E+00 at (1,10,15)
       Total Heat Release Rate:            147.564 kW
       Radiation Loss to Boundaries:       -48.961 kW

       Time Step    3800   January 28, 2023  20:16:05
       Step Size:    0.101E-01 s, Total Time:      38.64 s
       Pressure Iterations: 1
       Maximum Velocity Error:  0.20E-01 on Mesh 1 at (2,13,2)
       Maximum Pressure Error:  0.89E+03 on Mesh 1 at (1,12,21)
       ---------------------------------------------------------------
       Max CFL number:  0.93E+00 at (1,12,20)
       Max divergence:  0.82E+01 at (1,11,3)
       Min divergence: -0.24E+01 at (4,14,10)
       Max VN number:   0.61E+00 at (1,13,16)
       Total Heat Release Rate:            135.920 kW
       Radiation Loss to Boundaries:       -43.160 kW

       Time Step    3900   January 28, 2023  20:16:16
       Step Size:    0.930E-02 s, Total Time:      39.67 s
       Pressure Iterations: 1
       Maximum Velocity Error:  0.19E-01 on Mesh 1 at (2,13,2)
       Maximum Pressure Error:  0.65E+03 on Mesh 1 at (1,13,18)
       ---------------------------------------------------------------
       Max CFL number:  0.84E+00 at (1,13,19)
       Max divergence:  0.85E+01 at (1,13,3)
       Min divergence: -0.27E+01 at (2,11,14)
       Max VN number:   0.60E+00 at (1,18,23)
       Total Heat Release Rate:            162.385 kW
       Radiation Loss to Boundaries:       -54.509 kW

       Time Step    4000   January 28, 2023  20:16:25
       Step Size:    0.110E-01 s, Total Time:      40.73 s
       Pressure Iterations: 1
       Maximum Velocity Error:  0.27E-01 on Mesh 1 at (1,12,2)
       Maximum Pressure Error:  0.64E+03 on Mesh 1 at (1,15,18)
       ---------------------------------------------------------------
       Max CFL number:  0.93E+00 at (1,15,18)
       Max divergence:  0.86E+01 at (3,14,3)
       Min divergence: -0.31E+01 at (3,11,9)
       Max VN number:   0.92E+00 at (1,15,19)
       Total Heat Release Rate:            145.879 kW
       Radiation Loss to Boundaries:       -47.169 kW

       Time Step    4100   January 28, 2023  20:16:35
       Step Size:    0.978E-02 s, Total Time:      41.92 s
       Pressure Iterations: 2
       Maximum Velocity Error:  0.31E-01 on Mesh 1 at (3,12,2)
       Maximum Pressure Error:  0.15E+04 on Mesh 1 at (1,12,10)
       ---------------------------------------------------------------
       Max CFL number:  0.87E+00 at (1,12,13)
       Max divergence:  0.95E+01 at (2,11,3)
       Min divergence: -0.20E+01 at (1,12,13)
       Max VN number:   0.73E+00 at (1,8,23)
       Total Heat Release Rate:            164.508 kW
       Radiation Loss to Boundaries:       -53.116 kW

       Time Step    4200   January 28, 2023  20:16:45
       Step Size:    0.117E-01 s, Total Time:      42.99 s
       Pressure Iterations: 1
       Maximum Velocity Error:  0.10E-01 on Mesh 1 at (36,24,20)
       Maximum Pressure Error:  0.44E+03 on Mesh 1 at (4,12,10)
       ---------------------------------------------------------------
       Max CFL number:  0.83E+00 at (3,12,13)
       Max divergence:  0.10E+02 at (2,11,3)
       Min divergence: -0.33E+01 at (4,12,10)
       Max VN number:   0.65E+00 at (1,11,21)
       Total Heat Release Rate:            145.480 kW
       Radiation Loss to Boundaries:       -46.655 kW

       Time Step    4300   January 28, 2023  20:16:55
       Step Size:    0.116E-01 s, Total Time:      44.06 s
       Pressure Iterations: 1
       Maximum Velocity Error:  0.16E-01 on Mesh 1 at (36,12,24)
       Maximum Pressure Error:  0.41E+03 on Mesh 1 at (1,11,20)
       ---------------------------------------------------------------
       Max CFL number:  0.82E+00 at (1,12,18)
       Max divergence:  0.92E+01 at (1,14,3)
       Min divergence: -0.21E+01 at (2,11,13)
       Max VN number:   0.62E+00 at (1,23,23)
       Total Heat Release Rate:            141.405 kW
       Radiation Loss to Boundaries:       -47.473 kW

       Time Step    4400   January 28, 2023  20:17:05
       Step Size:    0.112E-01 s, Total Time:      45.19 s
       Pressure Iterations: 1
       Maximum Velocity Error:  0.49E-01 on Mesh 1 at (3,11,2)
       Maximum Pressure Error:  0.75E+03 on Mesh 1 at (1,13,10)
       ---------------------------------------------------------------
       Max CFL number:  0.85E+00 at (2,13,18)
       Max divergence:  0.94E+01 at (1,14,3)
       Min divergence: -0.21E+01 at (3,11,8)
       Max VN number:   0.64E+00 at (1,9,21)
       Total Heat Release Rate:            144.613 kW
       Radiation Loss to Boundaries:       -51.884 kW

       Time Step    4500   January 28, 2023  20:17:15
       Step Size:    0.110E-01 s, Total Time:      46.22 s
       Pressure Iterations: 1
       Maximum Velocity Error:  0.35E-01 on Mesh 1 at (3,11,2)
       Maximum Pressure Error:  0.52E+03 on Mesh 1 at (1,13,22)
       ---------------------------------------------------------------
       Max CFL number:  0.87E+00 at (2,14,17)
       Max divergence:  0.79E+01 at (2,11,3)
       Min divergence: -0.21E+01 at (1,15,9)
       Max VN number:   0.51E+00 at (1,15,8)
       Total Heat Release Rate:            133.489 kW
       Radiation Loss to Boundaries:       -46.805 kW

       Time Step    4600   January 28, 2023  20:17:24
       Step Size:    0.116E-01 s, Total Time:      47.28 s
       Pressure Iterations: 2
       Maximum Velocity Error:  0.18E-01 on Mesh 1 at (1,12,2)
       Maximum Pressure Error:  0.45E+03 on Mesh 1 at (1,13,24)
       ---------------------------------------------------------------
       Max CFL number:  0.94E+00 at (2,12,13)
       Max divergence:  0.81E+01 at (2,11,3)
       Min divergence: -0.29E+01 at (2,12,10)
       Max VN number:   0.58E+00 at (1,2,23)
       Total Heat Release Rate:            159.239 kW
       Radiation Loss to Boundaries:       -52.820 kW

       Time Step    4700   January 28, 2023  20:17:34
       Step Size:    0.101E-01 s, Total Time:      48.43 s
       Pressure Iterations: 1
       Maximum Velocity Error:  0.10E-01 on Mesh 1 at (4,11,2)
       Maximum Pressure Error:  0.16E+04 on Mesh 1 at (1,13,12)
       ---------------------------------------------------------------
       Max CFL number:  0.90E+00 at (1,12,16)
       Max divergence:  0.10E+02 at (1,12,12)
       Min divergence: -0.20E+01 at (1,12,16)
       Max VN number:   0.52E+00 at (1,15,23)
       Total Heat Release Rate:            187.696 kW
       Radiation Loss to Boundaries:       -59.967 kW

       Time Step    4800   January 28, 2023  20:17:44
       Step Size:    0.880E-02 s, Total Time:      49.48 s
       Pressure Iterations: 1
       Maximum Velocity Error:  0.22E-01 on Mesh 1 at (1,12,2)
       Maximum Pressure Error:  0.12E+04 on Mesh 1 at (1,13,21)
       ---------------------------------------------------------------
       Max CFL number:  0.85E+00 at (1,12,18)
       Max divergence:  0.91E+01 at (3,11,3)
       Min divergence: -0.27E+01 at (1,13,8)
       Max VN number:   0.45E+00 at (1,10,23)
       Total Heat Release Rate:            159.191 kW
       Radiation Loss to Boundaries:       -50.974 kW

       Time Step    4900   January 28, 2023  20:17:54
       Step Size:    0.115E-01 s, Total Time:      50.53 s
       Pressure Iterations: 2
       Maximum Velocity Error:  0.16E-01 on Mesh 1 at (1,13,2)
       Maximum Pressure Error:  0.39E+03 on Mesh 1 at (1,13,3)
       ---------------------------------------------------------------
       Max CFL number:  0.92E+00 at (3,13,11)
       Max divergence:  0.81E+01 at (2,11,3)
       Min divergence: -0.27E+01 at (3,14,12)
       Max VN number:   0.85E+00 at (1,12,17)
       Total Heat Release Rate:            137.817 kW
       Radiation Loss to Boundaries:       -47.723 kW

       Time Step    5000   January 28, 2023  20:18:04
       Step Size:    0.126E-01 s, Total Time:      51.58 s
       Pressure Iterations: 1
       Maximum Velocity Error:  0.25E-01 on Mesh 1 at (1,11,2)
       Maximum Pressure Error:  0.44E+03 on Mesh 1 at (1,13,9)
       ---------------------------------------------------------------
       Max CFL number:  0.92E+00 at (3,11,20)
       Max divergence:  0.78E+01 at (2,11,3)
       Min divergence: -0.22E+01 at (3,11,13)
       Max VN number:   0.68E+00 at (1,2,23)
       Total Heat Release Rate:            166.828 kW
       Radiation Loss to Boundaries:       -55.898 kW

       Time Step    5100   January 28, 2023  20:18:13
       Step Size:    0.106E-01 s, Total Time:      52.59 s
       Pressure Iterations: 1
       Maximum Velocity Error:  0.16E-01 on Mesh 1 at (2,13,2)
       Maximum Pressure Error:  0.12E+04 on Mesh 1 at (1,12,15)
       ---------------------------------------------------------------
       Max CFL number:  0.88E+00 at (1,12,13)
       Max divergence:  0.12E+02 at (2,11,3)
       Min divergence: -0.25E+01 at (2,12,14)
       Max VN number:   0.46E+00 at (1,11,21)
       Total Heat Release Rate:            163.232 kW
       Radiation Loss to Boundaries:       -53.420 kW

       Time Step    5200   January 28, 2023  20:18:23
       Step Size:    0.118E-01 s, Total Time:      53.66 s
       Pressure Iterations: 1
       Maximum Velocity Error:  0.19E-01 on Mesh 1 at (3,12,2)
       Maximum Pressure Error:  0.28E+03 on Mesh 1 at (1,12,17)
       ---------------------------------------------------------------
       Max CFL number:  0.80E+00 at (3,11,22)
       Max divergence:  0.77E+01 at (4,11,3)
       Min divergence: -0.27E+01 at (3,13,11)
       Max VN number:   0.73E+00 at (1,2,22)
       Total Heat Release Rate:            156.485 kW
       Radiation Loss to Boundaries:       -53.349 kW

       Time Step    5300   January 28, 2023  20:18:33
       Step Size:    0.974E-02 s, Total Time:      54.81 s
       Pressure Iterations: 1
       Maximum Velocity Error:  0.12E-01 on Mesh 1 at (3,12,2)
       Maximum Pressure Error:  0.60E+03 on Mesh 1 at (1,14,18)
       ---------------------------------------------------------------
       Max CFL number:  0.77E+00 at (1,14,17)
       Max divergence:  0.78E+01 at (4,12,3)
       Min divergence: -0.28E+01 at (2,13,11)
       Max VN number:   0.79E+00 at (1,14,22)
       Total Heat Release Rate:            150.049 kW
       Radiation Loss to Boundaries:       -51.824 kW

       Time Step    5400   January 28, 2023  20:18:43
       Step Size:    0.104E-01 s, Total Time:      55.85 s
       Pressure Iterations: 1
       Maximum Velocity Error:  0.30E-01 on Mesh 1 at (3,12,2)
       Maximum Pressure Error:  0.50E+03 on Mesh 1 at (1,12,22)
       ---------------------------------------------------------------
       Max CFL number:  0.85E+00 at (1,12,24)
       Max divergence:  0.99E+01 at (1,14,3)
       Min divergence: -0.31E+01 at (3,13,11)
       Max VN number:   0.71E+00 at (1,7,23)
       Total Heat Release Rate:            158.641 kW
       Radiation Loss to Boundaries:       -51.439 kW

       Time Step    5500   January 28, 2023  20:18:52
       Step Size:    0.117E-01 s, Total Time:      56.95 s
       Pressure Iterations: 2
       Maximum Velocity Error:  0.16E-01 on Mesh 1 at (3,11,2)
       Maximum Pressure Error:  0.48E+03 on Mesh 1 at (1,13,10)
       ---------------------------------------------------------------
       Max CFL number:  0.92E+00 at (3,13,16)
       Max divergence:  0.79E+01 at (4,11,3)
       Min divergence: -0.22E+01 at (2,13,18)
       Max VN number:   0.60E+00 at (1,22,23)
       Total Heat Release Rate:            147.623 kW
       Radiation Loss to Boundaries:       -49.157 kW

       Time Step    5600   January 28, 2023  20:19:02
       Step Size:    0.986E-02 s, Total Time:      58.03 s
       Pressure Iterations: 1
       Maximum Velocity Error:  0.12E-01 on Mesh 1 at (1,14,2)
       Maximum Pressure Error:  0.14E+04 on Mesh 1 at (1,14,18)
       ---------------------------------------------------------------
       Max CFL number:  0.96E+00 at (1,14,20)
       Max divergence:  0.88E+01 at (3,11,3)
       Min divergence: -0.18E+01 at (1,13,9)
       Max VN number:   0.62E+00 at (1,12,23)
       Total Heat Release Rate:            178.976 kW
       Radiation Loss to Boundaries:       -60.500 kW

       Time Step    5700   January 28, 2023  20:19:12
       Step Size:    0.906E-02 s, Total Time:      59.14 s
       Pressure Iterations: 1
       Maximum Velocity Error:  0.39E-01 on Mesh 1 at (3,13,2)
       Maximum Pressure Error:  0.99E+03 on Mesh 1 at (1,14,20)
       ---------------------------------------------------------------
       Max CFL number:  0.86E+00 at (1,14,20)
       Max divergence:  0.78E+01 at (4,13,3)
       Min divergence: -0.33E+01 at (3,13,3)
       Max VN number:   0.53E+00 at (1,12,23)
       Total Heat Release Rate:            149.145 kW
       Radiation Loss to Boundaries:       -48.776 kW

       Time Step    5783   January 28, 2023  20:19:20
       Step Size:    0.109E-02 s, Total Time:      60.00 s
       Pressure Iterations: 6
       Maximum Velocity Error:  0.23E-01 on Mesh 1 at (3,12,2)
       Maximum Pressure Error:  0.16E+04 on Mesh 1 at (1,12,3)
       ---------------------------------------------------------------
       Max CFL number:  0.80E-01 at (1,13,17)
       Max divergence:  0.89E+01 at (1,14,3)
       Min divergence: -0.26E+01 at (3,13,12)
       Max VN number:   0.43E-01 at (1,11,18)
       Total Heat Release Rate:            177.666 kW
       Radiation Loss to Boundaries:       -55.105 kW



 Time Stepping Wall Clock Time (s):      574.291
 Total Elapsed Wall Clock Time (s):      576.774

STOP: FDS completed successfully (CHID: simple_test)
