data_AMSinput
_cell_length_a    3.21000
_cell_length_b    3.21000
_cell_length_c    5.55000
_cell_angle_alpha   90.00000
_cell_angle_beta   90.00000
_cell_angle_gamma  120.00000
loop_
_atom_site_type_symbol
_atom_site_fract_x
_atom_site_fract_y
_atom_site_fract_z
Fl 1.630003346359555e-16 -8.4534831223504e-16 -6.774829244391554e-16
Fl 0.3333333333333337 -0.333333333333334 -0.5000000000000006
