LAMMPS (29 Sep 2021 - Update 2)
# PART A - ENERGY MINIMIZATION
# 1) Initialization

units lj # Lennard-Jones (LJ) units are a dimensionless system of units.

dimension 3 # 3D simulation

atom_style atomic

# atoms will be interacting through a Lennard-Jones potential with a cut-off equal to rc=2.5 :
pair_style lj/cut 2.5

# the periodic boundary conditions will be used along all three directions of space (the 3 p stand for x, y, and z, respectively).
boundary p p p

# 2) System definition
region simulation_box block -20 20 -20 20 -20 20
create_box 2 simulation_box
Created orthogonal box = (-20.000000 -20.000000 -20.000000) to (20.000000 20.000000 20.000000)
create_atoms 1 random 1500 341341 simulation_box
Created 1500 atoms
create_atoms 2 random 100 127569 simulation_box
Created 100 atoms

# 3) Simulation settings
mass 1 1
mass 2 1
pair_coeff 1 1 1.0 1.0
pair_coeff 2 2 0.5 3.0

# 4) Visualization
thermo 10
thermo_style custom step temp pe ke etotal press

# 5) Run
minimize 1.0e-4 1.0e-6 1000 10000
  update every 1 steps, delay 0 steps, check yes
Step Temp PotEng KinEng TotEng Press
0            0     78840982            0     78840982      7884122
Loop time of 0.0373841 on 4 procs for 384 steps with 1600 atoms

Minimization stats:
  Stopping criterion = linesearch alpha is zero
  Energy initial, next-to-last, final =
  Force two-norm initial, final = 1.6033542e+13 10.109323
  Force max component initial, final = 1.0518609e+13 2.2637223
  Final line search alpha, max atom move = 1.6851437e-07 3.8146973e-07
  Iterations, force evaluations = 384 805

# PART B - MOLECULAR DYNAMICS
# 4) Visualization
thermo 50
dump mydmp all atom 100 dump.lammpstrj

# 5) Run
fix mynve all nve
fix mylgv all langevin 1.0 1.0 0.1 1530917
timestep 0.005
run 10000
Step Temp PotEng KinEng TotEng Press
384            0  -0.95517615            0  -0.95517615 -0.00029974323
Averages over the last 101 of 202 rows, steps 5400 to 10384:
Temp PotEng KinEng TotEng Press
1.00105 -0.231704 1.50064 1.26893 0.0232401
Loop time of 0.623744 on 4 procs for 10000 steps with 1600 atoms
